26
7.274
N         -3.27870        0.31050       -2.33400
C         -3.75120        1.12710       -1.35570
C         -2.81140        1.23540       -0.35950
N         -1.75940        0.46230       -0.78770
N         -2.07160       -0.09990       -1.97480
C         -0.48880        0.24040       -0.19510
C          0.17800        1.23640        0.53110
C          1.44790        1.02420        1.08230
C          2.08220       -0.21270        0.89220
C          1.46450       -1.27360        0.19330
C          0.17790       -1.00260       -0.35410
N         -0.56540       -2.14810       -0.87020
O         -0.12310       -2.71410       -1.87680
O         -1.53860       -2.51020       -0.19470
N          2.17270       -2.44510       -0.11720
N          3.42460       -0.36730        1.46160
O          4.14890        0.63670        1.47710
O          3.73270       -1.47850        1.91540
N         -0.33440        2.58740        0.64650
O         -0.39110        3.25260       -0.39140
O         -0.66570        2.95550        1.77810
H         -4.73250        1.57700       -1.41380
H         -2.84110        1.75320        0.58690
H          1.95140        1.82780        1.62300
H          2.90090       -2.73090        0.54500
H          1.67140       -3.24370       -0.50730
