31
8.284
N         -0.39900        0.46350       -0.05370
C          0.95570        0.12720        0.44580
C          2.04130        0.20650       -0.66390
N          3.38040       -0.16260       -0.17120
N          3.63670       -1.52210       -0.07190
O          4.81860       -1.85610        0.02710
O          2.65940       -2.27440       -0.05860
C          4.43060        0.58660       -0.86320
C         -1.45700       -0.22780        0.75460
C         -2.96720       -0.27630        0.36350
N         -3.14070       -0.48250       -1.09270
O         -2.40570       -1.33830       -1.61740
O         -3.94910        0.20120       -1.73370
N         -3.76580        0.86230        0.88370
O         -4.99020        0.88980        0.68960
O         -3.17320        1.69740        1.58740
N         -3.59720       -1.44930        1.04720
O         -4.42730       -2.14510        0.44580
O         -3.23880       -1.67130        2.21640
N         -0.62590        1.80070       -0.30270
O          0.27420        2.59890       -0.05430
O         -1.72930        2.03910       -0.78770
H          0.94180       -0.89530        0.83670
H          1.23080        0.75770        1.30270
H          2.06810        1.23740       -1.03550
H          1.75510       -0.40560       -1.53060
H          5.40740        0.46690       -0.37980
H          4.22500        1.66330       -0.83370
H          4.51920        0.28430       -1.91320
H         -1.13120       -1.28010        0.76540
H         -1.34670        0.10400        1.79810
