43
8.334
C          0.89920       -1.89770       -0.51030
N          1.95050       -1.43030        0.38720
N          2.37970       -2.38670        1.33250
O          3.28490       -2.06950        2.09630
O          1.76980       -3.45800        1.29950
C          2.51940       -0.18470        0.36250
O          3.41340        0.26530        1.06210
O          1.97130        0.60470       -0.61980
C          2.42370        1.98850       -0.68520
C          3.39090        2.27060       -1.82880
N          3.71780        3.71530       -1.92730
O          4.35320        4.12560       -2.90980
O          3.30960        4.45790       -1.02010
N          2.79880        1.92640       -3.14500
O          1.56530        2.02750       -3.25290
O          3.53390        1.57240       -4.07820
N          4.64400        1.51070       -1.63390
O          4.60550        0.28310       -1.83050
O          5.63890        2.10000       -1.18830
N         -0.41830       -2.08250        0.08300
C         -0.96630       -1.12930        0.90670
O         -0.41030       -0.06260        1.15140
O         -2.13570       -1.48340        1.51070
C         -2.84110       -0.49580        2.30530
C         -4.26240       -0.24460        1.80670
N         -5.00240       -1.51270        1.63750
O         -5.66990       -1.70100        0.61060
O         -4.89920       -2.34600        2.55420
N         -4.99690        0.58050        2.79960
O         -4.35210        1.48150        3.36230
O         -6.18970        0.34400        3.03800
N         -4.28510        0.51190        0.53190
O         -5.24500        1.25680        0.28380
O         -3.31040        0.38740       -0.22920
N         -1.27220       -2.91180       -0.69450
O         -0.70670       -3.61290       -1.53330
O         -2.48130       -2.82840       -0.48570
H          1.28580       -2.81420       -0.97440
H          0.76880       -1.18050       -1.32930
H          1.50330        2.57840       -0.79230
H          2.84180        2.30180        0.28070
H         -2.85180       -0.89910        3.32660
H         -2.27300        0.44140        2.36000
