21
8.748
N         -0.99380       -0.93080        0.55770
N         -2.11210       -1.06250        1.38930
O         -2.79390       -2.07740        1.24620
O         -2.29900       -0.15900        2.20520
C         -0.44880        0.45960        0.46750
C          0.94970        0.73870       -0.12450
N          1.41950        2.10730        0.23780
O          2.63500        2.34800        0.27220
O          0.54710        2.96500        0.44860
N          0.99590        0.76650       -1.60490
O         -0.08860        0.78050       -2.20860
O          2.09160        0.82140       -2.18120
N          1.91030       -0.24510        0.42150
O          2.22840       -0.12980        1.61610
O          2.23720       -1.21420       -0.27990
C         -1.14920       -1.61980       -0.72550
H         -0.38030        0.82590        1.50360
H         -1.20840        1.09400       -0.01320
H         -1.92040       -1.14920       -1.34570
H         -0.21230       -1.64110       -1.28670
H         -1.40800       -2.67780       -0.59550
