10
7.976
C         -0.64300        1.04910        0.44830
N         -1.93800        0.68510        0.18580
N         -1.92890       -0.52020       -0.38070
N         -0.64600       -0.91330       -0.47530
C          0.17350        0.03890        0.03060
N          1.56610       -0.12690        0.05070
O          1.99980       -1.18630       -0.41720
O          2.23140        0.79480        0.53130
H         -0.39410        1.99390        0.91040
H         -0.42090       -1.81520       -0.88380
