30
8.525
N          0.13920       -0.99350       -0.21590
C          1.40680       -0.58680       -0.92800
C          2.35140        0.52230       -0.39730
N          2.47620        0.38780        1.06760
O          3.11070       -0.58620        1.49980
O          1.80830        1.14680        1.78550
N          3.70100        0.41160       -1.01800
O          3.74400       -0.02680       -2.17850
O          4.70020        0.78500       -0.38880
N          1.93040        1.89770       -0.75270
O          0.90290        2.01710       -1.43970
O          2.61410        2.85940       -0.37790
N         -0.32780       -2.25210       -0.57330
O          0.25710       -2.83880       -1.47920
O         -1.29000       -2.64160        0.08050
C         -0.92280        0.07180       -0.13400
C         -2.29470       -0.01780        0.63270
N         -3.29280       -0.86450       -0.06500
O         -4.14070       -1.49260        0.58230
O         -3.21090       -0.89820       -1.30610
N         -2.87320        1.36530        0.68190
O         -2.15150        2.25370        1.16450
O         -3.99000        1.58880        0.19560
N         -2.15900       -0.41610        2.05430
O         -1.05740       -0.85640        2.41830
O         -3.11100       -0.23850        2.82850
H          2.03860       -1.48980       -0.92430
H          1.16070       -0.40860       -1.98560
H         -1.12690        0.39650       -1.16450
H         -0.39310        0.90440        0.33730
