7
7.271
C         -0.65280       -0.02080        0.02430
N          0.83250        0.02570       -0.03860
O          1.43380       -1.04880        0.07700
O          1.35430        1.13770       -0.18180
H         -0.98410       -0.98330       -0.37140
H         -1.04880        0.79650       -0.58220
H         -0.93490        0.09310        1.07270
