34
6.845
C         -0.90130       -0.69060       -1.04210
C          0.45940       -1.41210       -0.99980
C          1.36110       -0.71780        0.03900
C          1.56190        0.76600       -0.34090
C          0.18900        1.47840       -0.37950
C         -0.70790        0.79090       -1.43060
C         -0.46890        1.40380        1.01060
C         -0.65970       -0.07650        1.39560
C         -1.56770       -0.76510        0.35100
C          0.70240       -0.79660        1.43500
N         -1.28060       -0.14180        2.78590
O         -0.66810        0.43310        3.69300
O         -2.34090       -0.76030        2.91780
N          0.34970        2.94730       -0.75150
O         -0.69050        3.58580       -0.94810
O          1.49450        3.40610       -0.81110
N          2.71430       -1.41900        0.04000
O          3.02130       -2.07710        1.03880
O          3.40410       -1.29780       -0.97840
N         -1.76800       -1.36930       -2.09620
O         -1.41640       -1.23510       -3.27360
O         -2.74300       -2.02080       -1.71000
H          0.93270       -1.39500       -1.99120
H          0.32570       -2.47290       -0.74600
H          2.05310        0.85310       -1.32000
H          2.23220        1.24670        0.38540
H         -0.24870        0.88400       -2.42450
H         -1.68720        1.28430       -1.50030
H         -1.43860        1.92080        1.01600
H          0.15790        1.92660        1.74630
H         -1.73710       -1.81380        0.63390
H         -2.55510       -0.28290        0.32550
H          0.56080       -1.84230        1.74240
H          1.35980       -0.33980        2.18800
