34
7.109
O         -0.62440        0.92070       -2.10270
C         -0.59930        0.10620       -1.19830
O         -1.64480       -0.26740       -0.42500
C         -2.88490        0.41700       -0.70140
C         -3.91350        0.14940        0.39950
N         -5.23180        0.66630       -0.10060
O         -6.15120       -0.14750       -0.26690
O         -5.30360        1.86800       -0.39690
C         -3.99190       -1.32120        0.81290
N         -3.64210        0.97570        1.62390
O         -4.44420        0.88730        2.56560
O         -2.61160        1.66410        1.65010
C          0.67060       -0.67270       -0.77780
O          0.66920       -1.58720        0.02450
O          1.75450       -0.18390       -1.42290
C          3.02060       -0.83930       -1.16250
C          3.89960       -0.04380       -0.19490
N          5.30080       -0.59270       -0.17190
O          6.14000       -0.00050        0.52290
O          5.55660       -1.56900       -0.89180
C          3.97120        1.44810       -0.53310
N          3.38720       -0.27190        1.19690
O          2.71720        0.63470        1.71340
O          3.59470       -1.37320        1.72540
H         -3.25520        0.01930       -1.65620
H         -2.70000        1.49060       -0.84330
H         -4.80030       -1.51440        1.52870
H         -3.06140       -1.65230        1.28910
H         -4.16590       -1.96670       -0.05620
H          2.86990       -1.88140       -0.85070
H          3.50180       -0.89050       -2.14760
H          4.56500        2.01420        0.19500
H          2.97820        1.91160       -0.55870
H          4.42910        1.60210       -1.51750
