34
7.315
C          3.03590        0.39440       -2.17600
C          1.83650        0.93620       -1.68620
C          1.35710        0.63670       -0.40430
C          2.11630       -0.22390        0.40140
C          3.31750       -0.78980       -0.06730
C          3.76850       -0.47330       -1.35680
N          5.02580       -1.05220       -1.85180
O          5.29770       -0.88330       -3.04640
O          5.72770       -1.66660       -1.03990
N          1.71720       -0.52480        1.77410
O          1.95180       -1.66540        2.18710
O          1.21520        0.39100        2.43570
C          0.11150        1.25690        0.06350
O         -0.05230        2.45880        0.13640
O         -0.78510        0.28060        0.31920
C         -2.08100        0.76010        0.72700
C         -3.07910       -0.35840        1.02340
N         -2.49550       -1.24780        2.08260
O         -1.56350       -2.00380        1.76860
O         -2.93650       -1.12990        3.23530
N         -3.31460       -1.25100       -0.15960
O         -4.07160       -2.22150       -0.00490
O         -2.80610       -0.93580       -1.24480
C         -4.43480        0.21220        1.45320
N          1.07450        1.79730       -2.57590
O          1.68410        2.73910       -3.09400
O         -0.10410        1.48710       -2.78040
H          3.38070        0.64530       -3.18020
H          3.89560       -1.45800        0.57370
H         -1.94360        1.37280        1.62870
H         -2.47310        1.41320       -0.06460
H         -4.33030        0.89590        2.30420
H         -4.89850        0.77810        0.63620
H         -5.14380       -0.57020        1.75030
