33
7.695
O          1.20160        1.22300        0.54540
C          0.31390        0.92620       -0.23620
C         -1.12310        0.66300        0.14770
C         -1.24770        0.40430        1.66270
C         -2.64500       -0.00460        2.17070
N         -3.67540        0.91820        1.63050
O         -3.55780        2.12170        1.91560
O         -4.50670        0.48990        0.81700
N         -3.02150       -1.40540        1.83190
O         -3.99540       -1.92500        2.39670
O         -2.32440       -1.99870        0.99340
N         -2.70940        0.04740        3.66100
O         -1.68920       -0.30090        4.27710
O         -3.75440        0.41320        4.21900
O          0.47930        0.79180       -1.57960
C          1.81690        1.02780       -2.09190
C          2.59010       -0.27220       -2.32130
N          3.08250       -0.77210       -0.99440
O          2.45770       -1.70780       -0.47090
O          4.03820       -0.18890       -0.46380
N          3.84330       -0.01490       -3.11430
O          4.53110       -0.99490       -3.43780
O          4.08900        1.15120       -3.45560
C          1.76810       -1.33800       -3.05340
H         -1.70610        1.54120       -0.14790
H         -1.47230       -0.19990       -0.42570
H         -0.50500       -0.35330        1.95280
H         -0.93120        1.32480        2.17630
H          1.64860        1.53680       -3.04960
H          2.35790        1.74800       -1.46390
H          0.83920       -1.57660       -2.52280
H          2.31570       -2.28120       -3.17080
H          1.49180       -0.99420       -4.05740
