36
7.424
N         -4.45310       -0.45360        1.82910
O         -5.62720       -0.40210        2.22630
O         -4.12740       -0.26110        0.64680
C         -3.37920       -0.78810        2.79260
N         -3.02760        0.41250        3.57920
O         -2.07190        0.30540        4.36740
O         -3.64000        1.47320        3.39020
N         -3.95640       -1.79570        3.71560
O         -4.43020       -1.43560        4.80290
O         -3.92900       -2.97930        3.33920
C         -2.13860       -1.35450        2.11570
O         -1.39670       -0.34730        1.38590
C         -0.30780       -0.82230        0.71700
O          0.05630       -1.98770        0.73680
C          0.38600        0.30050       -0.01940
C          1.50610       -0.24080       -0.92580
C          2.17930        0.75120       -1.91220
N          1.18640        1.32080       -2.89700
O          0.15910        0.65990       -3.11160
O          1.47600        2.36490       -3.49730
N          2.72300        1.90970       -1.11190
O          3.92330        1.87960       -0.80450
O          1.92640        2.76770       -0.70450
C          3.29000        0.01780       -2.70720
C          4.05540        0.81870       -3.75940
H         -1.45560       -1.78370        2.86290
H         -2.40690       -2.15850        1.41560
H         -0.36930        0.83320       -0.60420
H          0.79860        0.97400        0.73830
H          2.28140       -0.66520       -0.27110
H          1.11400       -1.09580       -1.49530
H          4.02480       -0.39850       -2.00470
H          2.84850       -0.84850       -3.21910
H          3.42050        1.06690       -4.61480
H          4.88720        0.21840       -4.14360
H          4.47470        1.74380       -3.35550
