22
7.33
N         -2.87060       -0.36670       -0.35840
O         -2.87400       -1.51750       -0.82520
O         -3.84880        0.39380       -0.40870
C         -1.61460        0.08520        0.31050
N         -1.59920        1.57020        0.31500
O         -1.43130        2.17120        1.38630
O         -1.61090        2.13830       -0.78990
C         -0.37250       -0.45540       -0.42210
C          0.98280        0.14790       -0.00180
C          2.13740       -0.52120       -0.72840
O          1.94870       -1.35380       -1.61300
C          3.52490       -0.09830       -0.32480
N         -1.74890       -0.40290        1.71150
O         -2.82010       -0.23070        2.31260
O         -0.77160       -0.97880        2.21570
H         -0.48580       -0.27980       -1.50260
H         -0.31990       -1.54860       -0.31420
H          1.02300        1.21440       -0.24580
H          1.15610        0.02930        1.07080
H          3.68160       -0.31870        0.73390
H          3.64990        0.97120       -0.51050
H          4.26380       -0.64920       -0.91320
