20
7.743
C          1.08920       -0.05480       -0.06880
C          0.40950        1.17390        0.02520
C         -0.99180        1.28630       -0.03610
C         -1.75510        0.12770       -0.21050
C         -1.13130       -1.11790       -0.33150
C          0.27270       -1.18410       -0.26450
N          0.87870       -2.49060       -0.43490
O          0.62810       -3.08610       -1.48910
O          1.55790       -2.92070        0.50380
N         -3.22070        0.22070       -0.27530
O         -3.72520        1.34440       -0.16330
O         -3.85150       -0.83180       -0.43060
N          1.16280        2.40510        0.16650
O          0.99650        3.26180       -0.70920
O          1.87340        2.51580        1.17160
N          2.49820       -0.13270       -0.09980
N          3.01320       -0.30140        1.03050
N          3.47290       -0.45480        2.06150
H         -1.46430        2.26630        0.04110
H         -1.71340       -2.02720       -0.48640
