44
7.519
O         -1.70960        0.84390        0.11750
C         -0.35460        0.62400        0.54220
C          0.32140       -0.46050       -0.29390
O          1.67520       -0.68370        0.13280
C          2.59670        0.18520       -0.35920
O          2.35630        1.14250       -1.07840
C          3.97400       -0.19300        0.13740
C          5.05780        0.69590       -0.50350
C          6.51790        0.34320       -0.15700
N          6.67130        0.18200        1.31100
O          6.39280        1.16620        2.01640
O          6.92440       -0.93870        1.77540
N          7.44760        1.42230       -0.60550
O          7.17070        1.99070       -1.67440
O          8.44500        1.69840        0.07710
N          7.02120       -0.88050       -0.84030
O          8.23540       -1.13130       -0.81730
O          6.19020       -1.59260       -1.42600
C         -2.62820       -0.02700        0.61170
O         -2.38680       -0.97120        1.34770
C         -4.00710        0.34830        0.11720
C         -5.06410       -0.66570        0.59670
C         -6.49470       -0.45800        0.06150
N         -6.66570       -0.84590       -1.36630
O         -5.63970       -1.09330       -2.01980
O         -7.80910       -0.92660       -1.83950
N         -6.90610        0.95770        0.23660
O         -7.06160        1.67210       -0.76410
O         -6.93260        1.39590        1.39890
N         -7.46940       -1.32010        0.79390
O         -7.07470       -2.44810        1.13180
O         -8.61350       -0.89990        1.02080
H         -0.30950        0.38650        1.61250
H          0.17470        1.57600        0.42930
H          0.27900       -0.22120       -1.36400
H         -0.21000       -1.41170       -0.18340
H          3.97370       -0.07150        1.22560
H          4.13760       -1.24710       -0.10220
H          4.85190        1.73220       -0.19490
H          4.91850        0.69100       -1.59440
H         -4.23390        1.34660        0.50570
H         -3.96860        0.39210       -0.97450
H         -4.71640       -1.68040        0.35390
H         -5.07760       -0.62480        1.69650
