17
7.74
C          1.38360       -0.28290       -0.36990
C         -0.10040       -0.27080        0.03480
N         -0.75300       -1.29960       -0.83750
O         -1.48610       -0.90980       -1.75870
O         -0.40480       -2.48290       -0.68880
N         -0.26960       -0.75040        1.44700
O          0.68960       -0.60320        2.22170
O         -1.35760       -1.23520        1.79230
C         -0.74090        1.11130       -0.09210
O         -2.12910        1.15600        0.23550
O          2.06410        0.92630       -0.01550
H          1.48450       -0.36280       -1.45970
H          1.93130       -1.13000        0.06200
H         -0.24620        1.82640        0.57580
H         -0.63290        1.49340       -1.11450
H         -2.45590        2.05630        0.05280
H          3.02360        0.75810       -0.08510
