27
6.892
O         -0.05900       -0.06500       -1.76510
C          0.53710        0.21270       -0.71920
C          1.96240        0.72120       -0.74600
N          2.91300       -0.39160       -0.55160
O          2.50820       -1.55140       -0.73000
O          4.07210       -0.13090       -0.18830
N          2.21370        1.34720       -2.06180
O          3.06930        0.86060       -2.81820
O          1.52660        2.34070       -2.36100
N          2.25600        1.71470        0.30980
O          1.80530        1.49440        1.44980
O          2.96000        2.70280        0.05130
N         -0.09290       -0.01430        0.50300
C         -1.46770       -0.53430        0.67110
C         -1.74590       -0.65180        2.18220
C         -2.49690        0.43090        0.06350
C         -1.61290       -1.93310        0.05050
H          0.34190        0.33580        1.35920
H         -1.65860        0.32270        2.67700
H         -2.75310       -1.03730        2.37610
H         -1.02810       -1.32620        2.66390
H         -2.38260        1.43880        0.47880
H         -2.39230        0.51290       -1.02290
H         -3.52050        0.09660        0.26730
H         -0.84940       -2.61640        0.44010
H         -2.59570       -2.36370        0.27400
H         -1.51010       -1.91590       -1.03870
