28
7.376
C         -1.50840       -1.02980        1.83170
C         -1.58780       -0.69550        0.34350
C         -0.78260        0.52890       -0.24300
N         -1.15430        0.46630       -1.72000
O         -2.28950        0.82550       -2.05990
O         -0.35700       -0.09010       -2.48170
N         -1.43380        1.83090        0.21360
O         -2.18890        1.77790        1.19110
O         -1.14560        2.87850       -0.37000
C          0.74350        0.53340       -0.01200
N          1.55670        1.44700       -0.91830
O          0.97360        2.15070       -1.74490
O          2.79050        1.40340       -0.80300
C          1.48730       -0.86110        0.01200
C          1.64230       -1.64490       -1.28450
N          0.99860        1.15960        1.36250
O          1.04960        2.38910        1.46140
O          1.07740        0.39080        2.32810
H         -0.57000       -1.51830        2.09710
H         -1.64380       -0.16280        2.48030
H         -2.30150       -1.74430        2.08120
H         -1.30150       -1.60570       -0.20170
H         -2.65690       -0.56390        0.11680
H          2.50440       -0.72440        0.41010
H          1.01320       -1.53880        0.72730
H          2.05850       -1.03590       -2.09120
H          2.33180       -2.48160       -1.12350
H          0.69430       -2.08500       -1.60310
