31
7.612
N          2.51730       -0.63010       -3.05920
O          1.41440       -0.87920       -3.56230
O          3.60140       -0.71280       -3.64970
C          2.53950       -0.20160       -1.65270
C          1.33770       -0.15230       -0.92700
C          1.35260        0.25690        0.41400
C          2.56740        0.60950        1.02130
C          3.76020        0.55550        0.28450
C          3.75740        0.15080       -1.05640
N          5.02810        0.92900        0.92820
O          4.98410        1.30160        2.10740
O          6.05940        0.84810        0.24910
C          0.11620        0.32650        1.23910
O          0.10850        0.59340        2.42770
O         -0.98810        0.06270        0.49620
C         -2.22920        0.07920        1.24540
C         -3.43250       -0.28560        0.38690
N         -4.68680       -0.02340        1.13250
O         -5.67070        0.43950        0.53750
O         -4.67990       -0.28350        2.34700
N         -3.44870        0.53020       -0.84510
O         -3.55130       -0.02480       -1.94830
O         -3.29690        1.75640       -0.70790
N         -3.45040       -1.72200        0.02460
O         -4.53630       -2.27670       -0.20160
O         -2.36130       -2.31770       -0.01920
H          0.40160       -0.43690       -1.40520
H          2.57430        0.92390        2.06610
H          4.68600        0.11050       -1.62570
H         -2.12800       -0.61700        2.09030
H         -2.34560        1.08970        1.66250
