34
7.653
O          0.89290        0.67120        2.43340
C          0.25890        0.93400        1.41490
C          0.87830        1.80850        0.35760
C          1.90670        1.09130       -0.53490
C          2.97080        0.13860        0.08620
N          3.87880        0.77260        1.08080
O          4.91800        0.18210        1.41460
O          3.58640        1.90880        1.48200
N          3.88860       -0.30120       -1.02020
O          3.97900       -1.50330       -1.30860
O          4.47100        0.59550       -1.65410
N          2.36970       -1.10430        0.65260
O          1.33870       -1.52660        0.09190
O          2.88650       -1.66400        1.62800
N         -0.93770        0.32980        1.19720
C         -1.81400        0.46150        0.02670
C         -2.91220       -0.60580       -0.10650
N         -3.92600       -0.36390        0.97060
O         -4.00780       -1.19840        1.88270
O         -4.56250        0.69940        0.93880
N         -3.68170       -0.41140       -1.38570
O         -3.28610        0.46180       -2.17240
O         -4.63070       -1.17580       -1.61150
C         -2.36870       -2.03490       -0.08900
H          0.10190        2.25560       -0.27220
H          1.33660        2.66170        0.87040
H          2.41650        1.89270       -1.08950
H          1.34550        0.54260       -1.30540
H         -1.25590       -0.17880        2.02310
H         -1.15490        0.41900       -0.84950
H         -2.22320        1.47950        0.06110
H         -3.16480       -2.78600       -0.16140
H         -1.68710       -2.20260       -0.93150
H         -1.81160       -2.24930        0.83010
