51
7.912
C         -2.71980       -1.87110       -2.57590
O         -3.02860       -2.99170       -2.94430
C         -1.41250       -1.19240       -2.89780
C         -0.55700       -0.79650       -1.67870
C          0.25790       -1.85500       -0.88410
N          1.20480       -2.57080       -1.82240
O          0.72070       -3.33830       -2.66420
O          2.40830       -2.28600       -1.75390
N         -0.59790       -2.94790       -0.27760
O         -1.79240       -2.68570       -0.07230
O         -0.04440       -3.99230        0.09080
C          1.02430       -1.23810        0.32360
C          1.76390        0.08370        0.06310
C          2.60070        0.48960        1.25470
O          2.61890       -0.07520        2.33620
O          3.32680        1.60520        0.95900
C          4.18010        2.06810        2.03510
C          4.99990        3.28920        1.64120
N          4.12320        4.31970        1.04550
O          4.39440        4.78940       -0.06910
O          3.09910        4.62140        1.68270
N          5.65390        3.87070        2.83800
O          5.74110        5.10170        2.95420
O          6.08610        3.06990        3.68310
N          6.08830        2.96110        0.69180
O          5.95490        1.94390       -0.00750
O          7.08790        3.69360        0.64010
O         -3.49580       -1.06930       -1.79620
C         -4.68350       -1.70370       -1.26160
C         -5.29480       -0.89010       -0.13230
N         -5.65240        0.47870       -0.57290
O         -6.06790        0.60500       -1.73700
O         -5.55160        1.42780        0.21900
N         -4.34620       -0.82240        1.00600
O         -4.55740       -1.52610        2.00490
O         -3.31900       -0.13230        0.86980
N         -6.56800       -1.48070        0.34830
O         -6.86190       -2.61740       -0.05390
O         -7.29040       -0.81780        1.10840
H         -0.85990       -1.80660       -3.61230
H         -1.67460       -0.28030       -3.45100
H         -1.18910       -0.24130       -0.97380
H          0.15940       -0.06090       -2.07030
H          0.30700       -1.04410        1.13550
H          1.72900       -1.97390        0.73790
H          2.43050       -0.00020       -0.79950
H          1.04280        0.88770       -0.11920
H          3.52910        2.30230        2.88960
H          4.83380        1.23730        2.33630
H         -5.38590       -1.83150       -2.09630
H         -4.41580       -2.70650       -0.90000
