31
7.871
O          0.72350        1.17290       -0.51170
C          2.12280        0.89680       -0.69570
C          2.75330        0.51950        0.64240
C          1.69940       -0.17560        1.50060
O          0.77990       -0.88920        0.65590
C          0.00000       -0.00000       -0.14210
O         -1.13430        0.41740        0.61610
C         -2.22060       -0.51830        0.50400
C         -2.75330       -0.51950       -0.92660
C         -1.60160       -0.20290       -1.87730
O         -0.36910       -0.70110       -1.32870
N         -3.39110       -1.82450       -1.27700
O         -3.67520       -2.02830       -2.46600
O         -3.59900       -2.63820       -0.36610
N         -3.87750        0.45310       -1.07820
O         -4.77770        0.43340       -0.22670
O         -3.85200        1.23230       -2.04110
N          3.95330       -0.35210        0.46100
O          4.43040       -0.89560        1.46740
O          4.40760       -0.49260       -0.68310
N          3.31520        1.72350        1.32590
O          4.02240        2.49050        0.65700
O          3.04330        1.89840        2.52190
H          2.56930        1.78370       -1.15740
H          2.19460        0.09670       -1.44410
H          1.10390        0.52570        2.09980
H          2.11660       -0.89950        2.20840
H         -2.96920       -0.23560        1.25150
H         -1.83300       -1.49640        0.81790
H         -1.46540        0.87400       -2.04190
H         -1.71670       -0.64860       -2.87080
