24
8.889
C          1.20110        0.31200        0.69810
C          0.29010        1.32250        0.32350
C         -0.94700        1.02490       -0.26690
C         -1.30840       -0.30480       -0.49400
C         -0.44090       -1.33050       -0.11450
C          0.78700       -1.01990        0.48510
N          1.67930       -2.08890        0.86600
O          1.76820       -2.33920        2.06910
O          2.27540       -2.64410       -0.06010
N         -0.78560       -2.70810       -0.37650
O         -0.89000       -3.02320       -1.56300
O         -0.93390       -3.43420        0.60660
N         -2.57180       -0.61820       -1.12140
O         -2.73250       -0.18920       -2.26510
O         -3.36230       -1.28620       -0.45340
N         -1.85160        2.09380       -0.62290
O         -1.44570        2.89470       -1.46630
O         -2.94120        2.09940       -0.04790
N          0.62550        2.69840        0.61710
O          1.57150        3.18260       -0.00880
O         -0.07250        3.25870        1.46580
N          2.41990        0.61730        1.33940
N          3.39710        0.70900        0.55980
N          4.26820        0.77340       -0.16960
