22
8.168
N         -1.79600       -0.69970        0.46490
O         -1.72760       -1.83820       -0.02730
O         -2.40120       -0.44920        1.51560
C         -1.10600        0.39150       -0.28540
N         -0.88710        1.55800        0.60550
O         -1.17440        2.69120        0.19500
O         -0.32090        1.34440        1.68910
N         -2.14620        0.79600       -1.29350
O         -1.80130        0.84740       -2.48520
O         -3.30210        1.02850       -0.90750
C          0.19400       -0.09280       -0.98140
C          1.44880       -0.54070       -0.18450
N          2.32860        0.64300        0.20020
O          3.40270        0.39000        0.75460
O          1.92850        1.76890       -0.11400
C          1.23630       -1.43300        1.02980
H          0.51610        0.67110       -1.70490
H         -0.06560       -0.95330       -1.61800
H          2.09030       -1.08510       -0.89240
H          0.71090       -0.92790        1.84310
H          2.19320       -1.77660        1.44000
H          0.67890       -2.33340        0.75630
