38
8.064
C          0.94010        0.02400        1.88970
C         -0.57190       -0.12080        2.02730
C         -1.29360        0.60750        0.92070
O         -0.77630        1.36870        0.11710
O         -2.62580        0.31790        0.95450
C         -3.40090        0.94590       -0.09450
C         -4.87770        0.58500       -0.02240
N         -5.14630       -0.81260       -0.43210
O         -4.21670       -1.62970       -0.33940
O         -6.26990       -1.11060       -0.86550
N         -5.65380        1.44360       -0.95030
O         -5.12530        1.70630       -2.04330
O         -6.77050        1.86310       -0.61280
N         -5.39090        0.80340        1.34670
O         -5.98600       -0.11140        1.93450
O         -5.14240        1.90360        1.87000
C          1.44690       -0.67720        0.65370
O          0.81860       -1.48870       -0.00880
O          2.72880       -0.29660        0.38630
C          3.31040       -0.92800       -0.77940
C          4.77370       -0.55580       -0.96690
N          5.65860       -1.18350        0.04230
O          5.13640       -1.60780        1.08600
O          6.87200       -1.28310       -0.19650
N          4.93110        0.91290       -0.91970
O          5.67720        1.42330       -0.07130
O          4.23510        1.57770       -1.70620
N          5.25990       -1.03670       -2.28340
O          6.06940       -0.35400       -2.92790
O          4.82120       -2.13020       -2.67660
H          1.43400       -0.42530        2.75770
H          1.21600        1.08320        1.83440
H         -0.89430        0.31020        2.98110
H         -0.85920       -1.17780        1.99950
H         -3.26770        2.03280        0.00510
H         -2.97070        0.64860       -1.06140
H          2.71710       -0.61140       -1.64900
H          3.19350       -2.01650       -0.67970
