35
7.95
C          3.29860       -0.27050       -0.83590
C          2.41230        0.73760       -0.10000
N          2.60080        2.11730       -0.70570
O          3.74180        2.45750       -1.04390
O          1.58800        2.81980       -0.84050
C          0.89140        0.38750        0.12500
C         -0.14690       -0.01330       -0.96650
N          0.04220        0.82360       -2.22970
O          1.11680        0.70890       -2.83050
O         -0.87160        1.58490       -2.56860
C         -1.67220        0.12790       -0.52280
C         -2.36680       -0.62440        0.65630
N         -1.94060       -2.05630        0.75040
O         -2.74160       -2.93390        0.41260
O         -0.76640       -2.26150        1.08460
C         -3.89740       -0.51800        0.51310
N         -2.03490       -0.05340        2.01410
O         -1.32520        0.95770        2.04560
O         -2.52480       -0.59610        3.01220
N          0.06420       -1.40720       -1.52000
O          1.10020       -2.00130       -1.21500
O         -0.84810       -1.88640       -2.20480
N          2.99110        0.96140        1.30570
O          3.85380        0.17300        1.71460
O          2.50010        1.87020        1.99060
H          3.02410       -0.39150       -1.88550
H          3.26510       -1.25520       -0.35680
H          4.35590        0.02580       -0.83680
H          0.45920        1.27080        0.60950
H          0.86840       -0.39350        0.89630
H         -2.28260       -0.10670       -1.40990
H         -1.85890        1.20130       -0.35930
H         -4.23990       -0.93230       -0.44280
H         -4.43500       -1.05280        1.30590
H         -4.22120        0.52930        0.55110
