30
6.372
C          3.75610       -0.55590        1.85820
C          4.45390       -0.49530        0.64700
C          3.78320       -0.24430       -0.55060
C          2.39540       -0.06120       -0.58470
C          1.70720       -0.16250        0.63390
C          2.36630       -0.37330        1.84250
N          1.46940       -0.34280        2.87120
N          0.27040       -0.10260        2.36310
N          0.38350       -0.05090        1.01750
C         -0.78220        0.08390        0.22860
C         -1.77010        1.02450        0.57940
C         -2.96230        1.16040       -0.15430
C         -3.17510        0.33630       -1.26440
C         -2.21900       -0.61670       -1.63640
C         -1.03810       -0.74010       -0.88000
N         -0.18540       -1.86960       -1.21650
O          0.02180       -2.69840       -0.32570
O          0.23740       -1.91600       -2.37700
N         -4.41310        0.46990       -2.04550
O         -4.60760       -0.35330       -2.94810
O         -5.17500        1.39870       -1.75160
N         -1.54090        2.01820        1.62150
O         -0.54510        2.73850        1.48240
O         -2.39960        2.10960        2.50530
H          4.27540       -0.72900        2.79500
H          5.53330       -0.63280        0.64320
H          4.35240       -0.18590       -1.47750
H          1.89980        0.15670       -1.52510
H         -3.69660        1.91470        0.13330
H         -2.39530       -1.28100       -2.48440
