30
8.412
C          2.91990       -0.25730        1.24610
C          1.57030        0.13440        1.31470
C          0.73330        0.17000        0.18680
C          1.31270       -0.19800       -1.03890
C          2.65710       -0.60620       -1.14190
C          3.45400       -0.62980        0.00880
N          4.86070       -1.04660       -0.08460
O          5.32250       -1.23490       -1.21610
O          5.48480       -1.18100        0.97420
N          0.55780       -0.12100       -2.27670
O          0.58520       -1.11260       -3.01050
O         -0.05580        0.92840       -2.48990
C         -0.66970        0.63510        0.32360
O         -0.99550        1.56760        1.02870
O         -1.52170       -0.12430       -0.38430
C         -2.95690        0.21320       -0.24770
N         -3.71250       -0.55580       -1.28860
O         -4.75230       -0.08350       -1.77390
O         -3.24930       -1.66520       -1.60940
N         -3.24850        1.66050       -0.47360
O         -2.75250        2.17370       -1.49190
O         -3.91760        2.29630        0.35420
N         -3.52660       -0.27740        1.04330
O         -2.73930       -0.81460        1.84050
O         -4.75000       -0.20770        1.23990
N          1.04880        0.43690        2.63440
O          1.58570        1.36620        3.24470
O          0.15370       -0.30460        3.04960
H          3.53010       -0.27580        2.15080
H          3.07150       -0.88620       -2.11250
