33
8.062
C         -2.06430        0.95310        1.01910
C         -3.40260        0.88960        0.59700
C         -3.87200       -0.29450        0.01160
C         -3.02260       -1.39870       -0.14990
C         -1.69220       -1.30620        0.29440
C         -1.19480       -0.13600        0.87920
C          0.18370       -0.03480        1.37360
O          0.46330        0.19440        2.53300
O          1.03240       -0.13350        0.32570
C          2.41840        0.13570        0.65620
C          3.29800        0.27070       -0.57920
N          3.20450       -0.92120       -1.45040
O          3.21600       -0.78430       -2.68270
O          3.12840       -2.02390       -0.88450
N          4.73040        0.38970       -0.21070
O          5.59820        0.12930       -1.05760
O          4.99270        0.74040        0.95110
N          2.90750        1.47590       -1.34800
O          1.74600        1.52210       -1.78940
O          3.70840        2.41620       -1.45250
N         -0.84320       -2.47700        0.14600
O         -0.86460       -3.04280       -0.95150
O         -0.17560       -2.81700        1.12760
N         -5.26850       -0.37860       -0.44070
O         -5.68140       -1.48560       -0.80570
O         -5.93490        0.66300       -0.42440
N         -1.57870        2.21670        1.55380
O         -2.27150        2.75870        2.42100
O         -0.53600        2.66610        1.06270
H         -4.05670        1.75480        0.71610
H         -3.38530       -2.32140       -0.60600
H          2.76170       -0.68380        1.30260
H          2.45500        1.06290        1.24640
