33
7.904
C          3.12990       -0.72140       -0.67020
C          3.67920        0.03340        0.36890
C          2.85690        0.57960        1.35920
C          1.46670        0.36540        1.29860
C          0.85740       -0.38750        0.26270
C          1.73890       -0.91880       -0.70950
N          1.24270       -1.73360       -1.81020
O          0.48260       -1.18100       -2.61160
O          1.62800       -2.90610       -1.85120
C         -0.64350       -0.65400        0.22450
C         -1.43760        0.42390       -0.55090
C         -2.98080        0.35450       -0.46670
N         -3.44810        0.67730        0.90820
O         -3.89630        1.80930        1.14050
O         -3.26260       -0.17670        1.79060
N         -3.52460       -0.96850       -0.87820
O         -2.88940       -1.58650       -1.74710
O         -4.56520       -1.39830       -0.36050
N         -3.62790        1.32970       -1.39920
O         -2.90610        2.20720       -1.90120
O         -4.83930        1.22210       -1.64240
N          0.67750        0.94810        2.38630
O         -0.33420        1.58470        2.06910
O          1.08640        0.76240        3.53700
N          5.13130        0.25440        0.42140
O          5.56900        0.95080        1.34540
O          5.81900       -0.26470       -0.46620
H          3.76510       -1.15970       -1.44140
H          3.28440        1.16220        2.17710
H         -0.82220       -1.64470       -0.20790
H         -0.99620       -0.75660        1.25380
H         -1.13270        0.37430       -1.60370
H         -1.10850        1.41890       -0.22540
