37
8.614
N          0.43400        0.09630       -0.21740
C         -0.30430        0.99480        0.70000
C         -1.82960        1.13190        0.48240
C         -2.46980       -0.25020        0.26690
C         -1.76580       -1.10900       -0.81330
C         -0.36890       -0.60920       -1.23640
N         -2.56350       -1.23860       -2.08710
O         -3.51300       -0.46340       -2.24280
O         -2.16210       -2.04350       -2.93790
N         -1.70970       -2.52400       -0.28980
O         -2.78310       -3.11950       -0.13040
O         -0.60660       -2.95970        0.06760
N         -2.19640        2.07810       -0.62220
O         -1.29220        2.47620       -1.36520
O         -3.39520        2.34020       -0.77320
N         -2.38610        1.82330        1.70700
O         -3.26860        1.23910        2.34870
O         -1.87350        2.90120        2.03570
C          1.59670       -0.65480        0.34450
C          3.00980       -0.00720        0.34390
N          3.96370       -0.85930        1.10630
O          3.81260       -2.08840        1.01550
O          4.85180       -0.32940        1.78940
N          2.96170        1.31650        0.99480
O          3.27160        2.33050        0.35500
O          2.49970        1.35230        2.14970
N          3.60080        0.11140       -1.01100
O          2.85540       -0.07520       -1.98610
O          4.81210        0.35510       -1.12040
H          0.18350        1.97720        0.67430
H         -0.15960        0.61450        1.72100
H         -2.38150       -0.78480        1.22640
H         -3.55320       -0.17660        0.10470
H          0.21750       -1.40000       -1.72470
H         -0.49340        0.12580       -2.04380
H          1.32850       -0.96420        1.36540
H          1.67670       -1.60750       -0.19760
