31
8.576
C         -0.18600       -1.15030        1.76030
O         -1.24510       -0.39980        1.17570
C         -1.71220       -0.96780       -0.06350
C         -2.72320       -0.07290       -0.77600
N         -2.25740        1.33230       -0.79670
O         -3.03920        2.24380       -0.48830
O         -1.06340        1.53180       -1.08780
N         -2.89440       -0.53040       -2.17550
O         -2.94310       -1.75900       -2.35750
O         -2.97290        0.30140       -3.09080
N         -4.06650       -0.13220       -0.15260
O         -4.13490       -0.45500        1.04440
O         -5.06620        0.11460       -0.84510
O          1.00550       -1.03730        0.98830
C          1.58320        0.28130        1.03970
C          2.77460        0.44740        0.09840
N          2.36810        0.46210       -1.32810
O          1.40750       -0.25180       -1.66490
O          2.98270        1.18480       -2.12710
N          3.46220        1.73520        0.37100
O          4.69170        1.81640        0.23080
O          2.75290        2.68260        0.74880
N          3.76030       -0.63320        0.31400
O          4.19670       -1.27060       -0.65590
O          4.08800       -0.86690        1.49090
H         -0.01130       -0.78290        2.77710
H         -0.46540       -2.20710        1.82770
H         -0.84320       -1.13700       -0.71040
H         -2.13740       -1.95730        0.15440
H          0.80490        1.01710        0.80250
H          1.88360        0.46060        2.08150
