31
8.065
O         -0.62680       -1.17350       -1.06740
C         -0.17390       -0.09620       -0.72210
O          1.13530        0.17210       -0.49450
C          2.02930       -0.94590       -0.69900
C          3.44870       -0.64220       -0.23420
N          4.36930       -1.71800       -0.67650
O          5.52150       -1.43500       -1.03440
O          3.92050       -2.87620       -0.66430
N          3.56780       -0.59460        1.24120
O          2.52160       -0.47530        1.89920
O          4.68800       -0.70840        1.76110
N          3.90960        0.63420       -0.81810
O          3.82080        0.74730       -2.05300
O          4.29140        1.54850       -0.07430
O         -0.89170        1.02520       -0.47840
C         -2.31360        0.95990       -0.74420
C         -3.14070        0.74410        0.52660
N         -3.02170        1.98060        1.37250
O         -2.50910        1.87030        2.49530
O         -3.39460        3.05570        0.87930
N         -4.60750        0.67830        0.19740
O         -5.40480        0.53910        1.13640
O         -4.93810        0.71040       -0.99680
C         -2.76320       -0.51720        1.30450
H          2.01400       -1.17540       -1.77390
H          1.62460       -1.82210       -0.17250
H         -2.56700        1.90300       -1.24500
H         -2.51670        0.17490       -1.48470
H         -1.71580       -0.50140        1.62600
H         -3.36840       -0.64980        2.20980
H         -2.90880       -1.41230        0.68840
