36
8.133
C         -0.38460       -0.52970       -0.83850
C          0.18350       -0.45350        0.37350
C          1.59180       -0.79030        0.63900
O          2.09440       -0.70860        1.74680
O          2.25640       -1.17640       -0.47900
C          3.64800       -1.55360       -0.30040
C          4.64110       -0.49790       -0.76990
N          4.53250        0.71240        0.07240
O          3.55960        1.46230       -0.11500
O          5.34540        0.86990        0.99560
N          4.44390       -0.14940       -2.19760
O          4.02970       -1.05140       -2.94510
O          4.72300        0.98960       -2.59960
N          6.03990       -0.99430       -0.69910
O          6.94990       -0.30830       -1.18840
O          6.23030       -2.09980       -0.16670
C         -1.79130       -0.18760       -1.10970
O         -2.27010       -0.21710       -2.23110
O         -2.47040        0.14390        0.01660
C         -3.85310        0.51340       -0.20860
C         -4.57040        0.88820        1.08060
N         -4.36580       -0.16410        2.09820
O         -4.61610       -1.33260        1.75510
O         -3.89870        0.13490        3.20650
N         -4.12250        2.19160        1.62300
O         -2.99330        2.59280        1.29840
O         -4.88600        2.83560        2.35840
N         -6.02660        1.02000        0.83410
O         -6.36680        1.52570       -0.24810
O         -6.83340        0.62950        1.69040
H          0.16350       -0.84600       -1.72030
H         -0.36000       -0.12720        1.25430
H          3.76170       -2.48490       -0.87150
H          3.83470       -1.84090        0.74350
H         -4.34850       -0.34350       -0.68730
H         -3.87160        1.34730       -0.92460
