17
7.123
C          0.57310        1.40700       -0.40900
C          1.27490        0.26030        0.04490
C          0.65400       -0.95470        0.38520
C         -0.73180       -1.04870        0.27350
C         -1.48440        0.04560       -0.16830
C         -0.81280        1.23420       -0.49460
N         -1.54040        2.34260       -0.93840
N         -2.22170        3.12890       -1.27040
N         -1.41230       -2.30250        0.62050
O         -0.71890       -3.24980        1.00730
O         -2.64510       -2.32320        0.50020
N          2.72940        0.28830        0.18560
O          3.17530        0.57720        1.30570
O          3.39060       -0.11720       -0.78140
O          1.07870        2.52570       -0.72920
H          1.25860       -1.79430        0.72690
H         -2.56750       -0.01940       -0.25840
