27
7.343
C          1.64890       -0.09880       -1.90440
N          2.93670        0.36090       -2.01800
C          3.19330        0.91170       -0.85240
N          2.13610        0.83540        0.00700
C          1.11310        0.18860       -0.65760
C         -0.19810       -0.11140       -0.07900
C         -1.16310        0.88430        0.16810
C         -2.45820        0.59330        0.63340
C         -2.80930       -0.74000        0.87230
C         -1.88300       -1.76600        0.65920
C         -0.59890       -1.43430        0.19300
N          0.34000       -2.53050        0.03150
O          0.05660       -3.38250       -0.81740
O          1.32660       -2.53180        0.77700
N         -4.15650       -1.06320        1.36330
O         -4.42340       -2.25640        1.54970
O         -4.93080       -0.11960        1.56310
N         -0.84920        2.28600       -0.04950
O         -1.53260        2.88830       -0.88350
O          0.05800        2.76590        0.64250
N          4.42000        1.53940       -0.46290
O          5.32960        1.60590       -1.29680
O          4.46150        1.96930        0.70020
H          1.17350       -0.61370       -2.73260
H          2.12360        1.22640        0.94270
H         -3.17240        1.40090        0.80030
H         -2.14180       -2.80810        0.85090
