34
7.563
C          1.15980       -1.68500        0.73520
C          1.29750       -0.27160        0.58400
C          2.66700       -0.08100        0.56970
N          3.25660       -1.31070        0.64980
N          2.35330       -2.30780        0.77020
C          4.65930       -1.67100        0.65750
N          3.40550        1.13410        0.47160
O          4.61940        1.06220        0.26220
O          2.75770        2.17860        0.61190
N          0.37500        0.73290        0.52530
C         -0.91430        0.78940       -0.06780
C         -1.24680        0.17470       -1.29400
C         -2.55060        0.15320       -1.81910
C         -3.57470        0.78250       -1.10730
C         -3.30110        1.43780        0.09730
C         -1.98350        1.43880        0.59520
N         -1.74850        2.13750        1.85780
O         -0.69810        2.78710        1.95670
O         -2.62430        2.05210        2.72700
N         -4.94390        0.77710       -1.64170
O         -5.81320        1.37000       -0.99130
O         -5.13460        0.19020       -2.71420
N         -0.21220       -0.41020       -2.12320
O          0.66390        0.34890       -2.55400
O         -0.28330       -1.62750       -2.32540
N         -0.02850       -2.50920        0.92110
O         -1.10720       -1.90970        1.05310
O          0.10200       -3.74070        0.94260
H          5.09160       -1.40850       -0.31080
H          4.75490       -2.74950        0.81360
H          5.15280       -1.14670        1.47910
H          0.69270        1.68460        0.78710
H         -2.74820       -0.34240       -2.77010
H         -4.09580        1.93960        0.65100
