24
7.166
C          2.45730        0.37550       -0.57060
C          1.55100        1.43580       -0.66850
C          0.19790        1.21490       -0.34670
C         -0.27850       -0.04260        0.06470
C          0.66360       -1.08330        0.14670
C          2.02400       -0.88950       -0.16170
N          0.27620       -2.45970        0.40940
O         -0.34840       -3.03470       -0.49060
O          0.69110       -2.96200        1.46020
N         -1.64230       -0.25100        0.38130
N         -2.04670       -1.25590        1.18870
C         -3.37110       -1.09080        1.21660
C         -3.72140        0.00700        0.43030
N         -2.62180        0.54250       -0.10460
N         -0.63780        2.40450       -0.32550
O         -0.87790        2.93350       -1.41680
O         -0.94790        2.83650        0.79160
N          3.87310        0.59190       -0.89930
O          4.22420        1.74550       -1.17530
O          4.62010       -0.39400       -0.87830
H          1.88280        2.43120       -0.96820
H          2.71980       -1.72780       -0.10050
H         -3.99360       -1.76130        1.79350
H         -4.69360        0.43380        0.22370
