19
8.256
N         -2.18050       -0.91220       -0.26830
C         -2.22900        0.45670       -0.33580
N         -1.05490        1.09610       -0.24650
N         -0.19290        0.05530       -0.07510
C         -0.89960       -1.14870       -0.13900
N         -0.33620       -2.37980       -0.08070
C          1.19510        0.28350        0.17320
N          1.58830        1.51530        0.05480
N          2.88340        1.77820        0.26250
O          3.44300        1.32470        1.27550
O          3.47420        2.47030       -0.57420
N          1.96790       -0.82300        0.51340
N         -3.47900        1.18670       -0.50460
O         -3.43280        2.42640       -0.51580
O         -4.51210        0.51030       -0.62480
H          0.48750       -2.53250       -0.66490
H         -1.00790       -3.12900       -0.26120
H          2.82120       -0.59720        1.03220
H          1.46440       -1.58120        0.97910
