15
8.082
C          1.07530        0.77410        0.01540
N         -0.00910       -0.06270        0.04200
C         -0.97300        0.63500       -0.63720
N         -0.53850        1.83000       -0.97690
N          0.77320        1.91900       -0.55900
N         -2.27210        0.14750       -0.97290
O         -3.16440        0.98270       -1.15230
O         -2.40320       -1.08140       -1.05100
C         -0.13570       -1.33350        0.71010
N          2.37850        0.46330        0.50870
O          3.10050        1.40810        0.84350
O          2.68040       -0.73620        0.56850
H         -1.16160       -1.46800        1.06040
H          0.14150       -2.12330        0.00830
H          0.50820       -1.35460        1.59230
