22
7.527
C         -0.28710       -1.66500       -0.89570
C         -1.36940       -0.89030       -0.38830
C         -1.17400        0.33060        0.26130
C          0.12370        0.80830        0.44860
C          1.25060        0.07300        0.01750
C          0.99750       -1.13860       -0.66550
N          2.05150       -1.91150       -1.18560
N          2.95080       -2.41850       -1.54190
C          2.65820        0.57260        0.22150
N          0.31800        2.08350        1.11420
O          0.84020        2.98130        0.44610
O          0.00290        2.13660        2.30550
N         -2.30320        1.11850        0.69430
O         -2.96870        0.67300        1.63150
O         -2.47410        2.19320        0.11090
N         -2.74150       -1.34210       -0.59460
O         -3.18420       -2.18160        0.19880
O         -3.37910       -0.75860       -1.48170
O         -0.39000       -2.75450       -1.53520
H          2.76600        1.08430        1.18310
H          2.93350        1.25670       -0.58700
H          3.37830       -0.25080        0.24210
