45
7.49
C         -0.44350       -0.22350       -0.42200
C         -0.31550       -1.59600       -0.09280
C          1.03760       -1.78150        0.13450
N          1.64090       -0.57080       -0.07490
N          0.75490        0.35990       -0.47520
C          3.00990       -0.21400        0.06810
C          3.83690       -0.75830        1.06670
C          5.18190       -0.37130        1.22010
C          5.71740        0.59590        0.36260
C          4.92930        1.16580       -0.64160
C          3.59050        0.75350       -0.77880
N          2.89540        1.25560       -1.95730
O          2.59300        0.41500       -2.81460
O          2.74470        2.47990       -2.03950
N          7.11880        1.01160        0.51580
O          7.57660        1.79340       -0.32610
O          7.74730        0.54880        1.47550
N          3.32260       -1.64820        2.08950
O          2.45070       -1.19280        2.83470
O          3.80060       -2.78620        2.12150
N         -1.29520       -2.64310       -0.04560
O         -0.88600       -3.77550        0.23880
O         -2.46750       -2.34920       -0.30920
N         -1.55300        0.48330       -0.74730
C         -2.84920        0.53700       -0.17510
C         -3.98340        0.73900       -0.99830
C         -5.30310        0.69760       -0.50770
C         -5.51590        0.46370        0.85390
C         -4.43290        0.29530        1.71950
C         -3.12990        0.34100        1.19320
N         -2.05650        0.27360        2.16110
O         -1.79260       -0.84280        2.62230
O         -1.50170        1.33800        2.45520
N         -6.88600        0.42260        1.38350
O         -7.81130        0.63770        0.59110
O         -7.02350        0.18580        2.59020
N         -3.81380        1.00340       -2.42530
O         -2.90470        1.78070       -2.74890
O         -4.60700        0.45910       -3.20260
H          1.58330       -2.68420        0.37590
H          5.78700       -0.80690        2.01740
H          5.34510        1.90380       -1.32970
H         -1.36390        1.31860       -1.31590
H         -6.14410        0.84450       -1.18650
H         -4.58430        0.14040        2.78810
