32
7.555
C         -2.88410        0.69630       -0.02660
C         -3.20790       -0.02800        1.12520
C         -2.24190       -0.80980        1.76680
C         -0.93910       -0.86400        1.23740
C         -0.56590       -0.15200        0.07490
C         -1.57450        0.62620       -0.53700
N         -1.29310        1.42650       -1.72540
O         -1.68410        2.59870       -1.71650
O         -0.68100        0.87840       -2.64900
C          0.80040       -0.19390       -0.44950
C          1.38900       -1.07630       -1.40130
N          2.68230       -0.79390       -1.62720
N          2.93820        0.26680       -0.82800
C          1.83980        0.65780       -0.10640
N          1.85870        1.75530        0.80850
O          0.79310        1.99160        1.38880
O          2.91170        2.37810        0.95410
C          4.28020        0.81200       -0.85060
N          0.77290       -2.18810       -2.11430
O         -0.42550       -2.39530       -1.85920
O          1.46070       -2.84160       -2.90940
N          0.02970       -1.67580        1.96850
O          0.73700       -2.44750        1.31120
O          0.07440       -1.52540        3.19430
N         -4.57360        0.03380        1.66610
O         -5.39420        0.73650        1.06340
O         -4.81360       -0.62550        2.68500
H         -3.63280        1.31380       -0.52540
H         -2.48850       -1.36980        2.67020
H          4.89220        0.23750       -1.55210
H          4.23030        1.85020       -1.18680
H          4.70900        0.72730        0.15050
