13
8.043
C          1.06630       -0.11800        0.26010
N          0.35070        0.96210       -0.22660
C         -0.87790        0.50270       -0.34060
N         -0.99530       -0.80520        0.04260
C          0.25010       -1.22260        0.43360
N         -2.01560        1.23800       -0.80810
O         -1.84850        2.41550       -1.14030
O         -3.08610        0.61230       -0.83720
N          2.48670       -0.02500        0.52850
O          3.04420        1.05680        0.30790
O          3.03410       -1.04900        0.96250
H         -1.85610       -1.34130        0.02960
H          0.44740       -2.22610        0.78780
