32
7.223
N         -0.31290       -0.55660        0.27360
N          0.68170       -1.45550        0.83950
C          1.84170       -0.81940        0.46130
C          1.68900        0.38580       -0.28110
N          0.28730        0.55280       -0.40720
N         -0.57810        1.43660       -0.98520
C         -1.90650        0.76810       -0.58040
C         -1.65990       -0.47010        0.18610
C         -2.71930       -1.24070        0.62530
C         -4.01210       -0.77610        0.29500
C         -4.25490        0.41740       -0.44620
C         -3.18780        1.21760       -0.89160
N         -3.39320        2.42610       -1.64110
O         -2.62080        3.36920       -1.43860
O         -4.35110        2.43830       -2.42290
N         -5.16700       -1.56890        0.74610
O         -6.28630       -1.05260        0.63600
O         -4.94710       -2.69580        1.20500
C          2.68380        1.20280       -0.75770
C          3.98450        0.78110       -0.46070
C          4.23430       -0.40280        0.27370
C          3.15570       -1.19250        0.72070
N          3.46310       -2.40150        1.47030
O          3.15010       -3.48420        0.96000
O          4.07990       -2.24910        2.53370
N          5.11820        1.59100       -0.92550
O          4.85560        2.64140       -1.52580
O          6.25830        1.17250       -0.69200
H         -2.52160       -2.14640        1.18690
H         -5.27900        0.72180       -0.67310
H          2.45960        2.10460       -1.31450
H          5.25490       -0.71490        0.49960
