18
7.929
C         -0.76720       -1.02680        0.50950
C          0.62990       -1.17820        0.37790
C          1.43950       -0.12940       -0.16060
C          0.92510        1.12280       -0.59070
C         -0.46390        1.22860       -0.42650
C         -1.33540        0.19840        0.11280
N         -2.59440        0.65650        0.14650
O         -2.58540        1.94620       -0.36890
N         -1.24070        2.27650       -0.72440
O         -1.03880        3.41480       -1.19980
N          2.89320       -0.35940       -0.27880
O          3.31090       -1.50020       -0.04500
O          3.59840        0.60280       -0.60650
N         -1.59510       -2.06830        1.05080
O         -1.19800       -2.60040        2.09480
O         -2.60390       -2.38830        0.41370
H          1.08850       -2.11730        0.69510
H          1.53720        1.92150       -0.99970
