22
8.713
C          1.56810       -0.04180       -0.09500
C          0.60510       -1.05440       -0.03920
C         -0.78790       -0.76470        0.03360
C         -1.33860        0.55370        0.07380
C         -0.33380        1.53950        0.02740
C          1.10060        1.28220       -0.05220
N          1.76590        2.44270       -0.05200
O          0.82890        3.46090        0.00120
N         -0.47840        2.87580        0.04690
O         -1.43390        3.68040        0.09770
N         -2.69620        0.85570        0.12670
N         -1.72430       -1.87590        0.02420
O         -2.48350       -1.97780        0.99370
O         -1.70720       -2.59770       -0.97740
N          1.05290       -2.42660       -0.03440
O          0.76880       -3.09210        0.96420
O          1.68140       -2.80420       -1.02560
N          2.97650       -0.27880       -0.11170
O          3.44740       -0.81760        0.89460
O          3.58970        0.05100       -1.13000
H         -3.17280        0.42790        0.92910
H         -3.22880        0.56210       -0.69550
