20
8.624
C          1.66620       -0.25440       -0.01160
C          0.73560       -1.31550       -0.08700
C         -0.67010       -1.09080       -0.04340
C         -1.21040        0.22590        0.04120
C         -0.20290        1.21360        0.12500
C          1.21000        1.06200        0.10340
N          1.91110        2.16950        0.18690
O          0.93060        3.17860        0.27300
N         -0.37450        2.54330        0.24030
O         -1.37180        3.30060        0.27500
N         -2.57080        0.50230        0.14120
N         -1.52580       -2.24460       -0.11330
O         -2.32990       -2.28160       -1.05540
O         -1.41500       -3.09110        0.78120
N          1.45780       -2.44670       -0.21370
O          2.81540       -2.09370       -0.20470
N          2.90960       -0.66720       -0.06690
O          4.05390       -0.17010       -0.05680
H         -3.18390       -0.03160       -0.48020
H         -2.83520        1.49170        0.16560
