13
8.098
N          0.54420       -0.19660       -1.48800
C          1.14810        0.03080       -0.26600
C          0.21090        0.12820        0.74190
N         -1.00030       -0.04570        0.11100
C         -0.74600       -0.23680       -1.22450
N         -2.29690       -0.03260        0.71960
O         -2.27730        0.15730        1.93610
O         -3.22490       -0.21310       -0.06940
N          2.58650        0.14040       -0.14230
O          3.26410        0.02360       -1.17020
O          3.02550        0.34490        0.99840
H          0.29810        0.29880        1.80690
H         -1.53190       -0.39920       -1.95320
