18
9.06
C          1.00880        0.97610       -0.16590
C          1.32020       -0.38860       -0.05900
C          0.34850       -1.36590        0.10430
C         -0.98940       -0.94460        0.16150
C         -1.35730        0.38980        0.06160
C         -0.33080        1.33320       -0.10250
N         -0.44160        2.64070       -0.21850
O          0.92710        3.12970       -0.36430
N          1.81190        2.00940       -0.32230
O         -1.35170        3.49360       -0.23340
N         -2.66010        0.57350        0.13870
O         -3.18450       -0.74490        0.30190
N         -2.06780       -1.68650        0.31020
O         -2.34740       -2.89460        0.44510
N          0.84830       -2.58280        0.18350
O          2.25740       -2.38480        0.06240
N          2.50940       -0.95430       -0.09160
O          3.69910       -0.59900       -0.21170
