18
8.224
C          0.77650       -0.38050       -0.11500
C          1.21800        0.90870        0.01620
N          0.15330        1.76260        0.23790
C         -0.90840        0.97350        0.24980
N         -0.59280       -0.34620        0.00530
C         -1.51270       -1.44970       -0.17080
N         -2.24080        1.45480        0.51060
O         -3.03970        0.64740        1.00210
O         -2.48270        2.63020        0.21900
N          2.57260        1.39250        0.01360
O          3.42930        0.62950        0.47640
O          2.76620        2.52830       -0.43260
N          1.51690       -1.55210       -0.37080
O          1.27610       -2.52070        0.35420
O          2.29010       -1.50800       -1.32900
H         -1.77650       -1.83700        0.81600
H         -2.39770       -1.10110       -0.70860
H         -1.04770       -2.23230       -0.77420
