29
7.85
C          2.01270        1.07710       -0.39400
N          3.30980        0.93090        0.05940
C          3.24070       -0.06680        0.91300
N          1.97780       -0.57330        1.03790
C          1.15160        0.15150        0.19780
C         -0.28990       -0.09960        0.05500
C         -1.24700        0.58690        0.83310
C         -2.63150        0.45390        0.62470
C         -3.08750       -0.39720       -0.38780
C         -2.17990       -1.11640       -1.17310
C         -0.80180       -0.96120       -0.93920
N          0.09850       -1.75810       -1.76190
O          0.93490       -2.44800       -1.16470
O         -0.05380       -1.69590       -2.98550
N         -4.53180       -0.55350       -0.61420
O         -4.88700       -1.33000       -1.50900
O         -5.29530        0.09070        0.11520
N         -0.82690        1.45920        1.92170
O         -0.04950        0.97570        2.75470
O         -1.29070        2.60330        1.93710
N          4.33070       -0.61500        1.66530
O          5.44900       -0.11550        1.51030
O          4.04420       -1.55850        2.41710
N          1.68020        2.09890       -1.36950
O          0.49000        2.15320       -1.71530
O          2.58920        2.82790       -1.77810
H          1.72580       -1.34410        1.64750
H         -3.33390        1.01170        1.24590
H         -2.52880       -1.78780       -1.95920
