11
8.699
O         -1.90440       -1.08880        0.89740
N         -0.64990       -1.67790        0.73940
C          0.10120       -0.69450        0.23420
C         -0.65180        0.48210        0.07200
N         -1.89840        0.23920        0.47880
N         -0.23430        1.67430       -0.40400
N          1.47170       -0.96230       -0.07060
O          1.95940       -2.04220        0.29230
O          2.08450       -0.07830       -0.69110
H         -0.92760        2.37650       -0.64600
H          0.64950        1.77190       -0.90230
