87
7.956
O          0.07510       -0.08860       -0.02670
C         -0.94180        0.57760       -0.65160
N         -0.52150        1.37560       -1.60540
N          0.85020        1.23260       -1.65280
C          1.16590        0.37990       -0.70580
C          2.46020       -0.15790       -0.32040
C          2.95540       -0.03990        0.99390
C          4.21450       -0.54150        1.40920
C          4.98520       -1.18090        0.39790
C          4.54460       -1.35370       -0.93870
C          3.28000       -0.81060       -1.25810
N          2.75770       -1.01530       -2.59950
O          3.23610       -0.31590       -3.49960
O          1.84860       -1.84640       -2.71270
N          5.32880       -1.98500       -1.93280
C          6.27570       -1.08740       -2.63760
C          6.81290       -1.77380       -3.90320
O          5.79520       -1.95810       -4.88630
N          5.58180       -0.81590       -5.69610
O          4.79560       -1.02250       -6.61740
O          6.20980        0.20420       -5.40330
N          6.31870       -1.65660        0.74380
O          6.58870       -2.83470        0.47880
O          7.09850       -0.82780        1.23080
N          4.70050       -0.48530        2.74250
C          4.94820        0.83320        3.35110
C          6.22860        0.84390        4.20790
O          6.79450        2.15350        4.28480
N          6.18390        2.97660        5.26150
O          6.72950        4.07140        5.36830
O          5.19370        2.52320        5.83370
N          4.18980       -1.49060        3.56870
O          3.77290       -2.50590        3.00480
O          4.24210       -1.28780        4.78030
N          2.13800        0.67040        1.95310
O          2.27820        1.89590        1.98150
O          1.40530       -0.00920        2.67510
C         -2.28920        0.34430       -0.15610
C         -3.09260        1.41520        0.28510
C         -4.43060        1.24780        0.71210
C         -4.92150       -0.08310        0.71050
C         -4.17580       -1.22250        0.29690
C         -2.85970       -0.94720       -0.14490
N         -2.05750       -2.02940       -0.66930
O         -1.40010       -2.68790        0.13880
O         -2.13780       -2.21660       -1.88710
N         -4.75060       -2.51620        0.40300
C         -4.93370       -3.38590       -0.78530
C         -5.61800       -2.68110       -1.96430
O         -7.01240       -2.58010       -1.68170
N         -7.70690       -1.78340       -2.62370
O         -8.92270       -1.78460       -2.45080
O         -7.02710       -1.20770       -3.47490
N         -4.33130       -3.19490        1.56860
O         -3.85690       -2.50370        2.47440
O         -4.47630       -4.41750        1.57740
N         -6.27630       -0.30490        1.18200
O         -7.14100       -0.43530        0.30570
O         -6.44940       -0.38940        2.40180
N         -5.27230        2.33500        1.05020
C         -6.13610        2.80960       -0.06290
C         -6.91510        4.05840        0.37510
O         -6.03170        5.14200        0.66860
N         -5.65450        5.88840       -0.47540
O         -4.97040        6.87010       -0.19760
O         -6.04340        5.47530       -1.56880
N         -2.48510        2.73720        0.37630
O         -3.02440        3.65260       -0.25500
O         -1.50070        2.84150        1.11630
H          5.84510       -2.78840       -1.54330
H          5.78610       -0.14180       -2.88910
H          7.11730       -0.86340       -1.97250
H          7.17770       -2.77500       -3.64410
H          7.68140       -1.23980       -4.30890
H          5.07740        1.58280        2.55830
H          4.08720        1.16730        3.94200
H          6.08370        0.40540        5.20240
H          6.99230        0.22200        3.72780
H         -5.57570       -4.23480       -0.51440
H         -3.97470       -3.80270       -1.10680
H         -5.49260       -3.30030       -2.86070
H         -5.16280       -1.70040       -2.14000
H         -4.75230        3.13960        1.42050
H         -5.51840        3.02740       -0.93990
H         -6.85500        2.03450       -0.34160
H         -7.45470        3.83890        1.30410
H         -7.68220        4.33560       -0.35840
