16
8.924
O          1.04810        2.73330        0.13560
N          0.04690        1.91750       -0.39870
C          0.44770        0.66930       -0.13820
C          1.66730        0.70920        0.53190
N          2.06400        1.97170        0.71880
N          2.46130       -0.33780        1.08240
O          1.84210       -1.29680        1.56330
O          3.69210       -0.21730        1.03990
C         -0.27860       -0.50660       -0.57730
C         -1.65720       -0.69960       -0.57430
N         -1.97110       -1.88240       -1.11150
O         -0.73490       -2.43200       -1.46050
N          0.31410       -1.57020       -1.12860
N         -2.70770        0.10070       -0.03970
O         -2.44940        0.71250        1.00580
O         -3.78450        0.12840       -0.64880
