41
7.151
C          0.59490       -1.24420       -1.59030
C          1.11690       -0.49130       -0.52410
C          0.01320        0.11030        0.04160
N         -1.08660       -0.29960       -0.68170
N         -0.72850       -1.12290       -1.68830
C         -2.45910        0.00660       -0.48470
C         -3.33790        0.09250       -1.58400
C         -4.71250        0.35370       -1.42700
C         -5.22780        0.54030       -0.14100
C         -4.38850        0.46720        0.97590
C         -3.01980        0.19560        0.79040
N         -2.25580       -0.01410        2.00420
O         -2.08230        0.97320        2.72600
O         -1.84180       -1.15820        2.21260
N         -6.65940        0.81870        0.03940
O         -7.08290        0.88950        1.19980
O         -7.34510        0.96640       -0.97920
N         -2.85320        0.09100       -2.95890
O         -3.31810       -0.77110       -3.71410
O         -2.10020        1.02110       -3.27610
C          2.47790       -0.30180       -0.05890
C          3.18380       -1.31280        0.61410
C          4.49410       -1.13920        1.09300
C          5.13230        0.08880        0.88390
C          4.47580        1.12550        0.21130
C          3.16410        0.91080       -0.24330
N          2.53080        2.00820       -0.94430
O          2.77170        2.10360       -2.15180
O          1.82860        2.76820       -0.26740
N          6.50360        0.29040        1.37230
O          7.00220        1.41240        1.22160
O          7.06790       -0.67540        1.90030
N          2.56870       -2.60200        0.85700
O          2.21430       -2.83620        2.01670
O          2.48880       -3.36860       -0.10920
H          1.11600       -1.87240       -2.30440
H         -0.06260        0.81950        0.85520
H         -5.35500        0.43100       -2.30560
H         -4.78760        0.59370        1.98360
H          4.99500       -1.95340        1.61780
H          4.96400        2.08480        0.03720
