18
6.964
C         -0.19360       -1.76950       -0.53640
C         -1.22120       -0.94540       -0.06930
C         -0.94250        0.37490        0.32220
C          0.35400        0.90230        0.21570
C          1.36350        0.05030       -0.23710
C          1.10890       -1.27520       -0.61530
N          2.72530        0.52940       -0.34080
O          3.17210        0.68830       -1.48480
O          3.35440        0.67600        0.71460
O          0.67160        2.19930        0.51700
N         -2.00220        1.21050        0.86320
O         -2.76510        0.72680        1.70820
O         -2.01180        2.39520        0.48900
O         -2.49610       -1.43190       -0.04250
H         -0.39000       -2.79250       -0.84920
H          1.91300       -1.91380       -0.97760
H         -0.13320        2.75950        0.56500
H         -2.50700       -2.38420       -0.24180
