66
7.393
C         -0.20450        2.01170       -0.55460
N          0.54500        0.88560       -0.55230
C         -0.05550       -0.28570       -0.77050
N         -1.37060       -0.41220       -0.95550
C         -2.14460        0.69150       -0.90710
C         -1.57700        1.93810       -0.72400
N         -2.39270        3.11900       -0.69210
O         -3.31110        3.19630       -1.51930
O         -2.11830        3.97890        0.15570
N         -3.54270        0.47760       -0.94000
C         -4.16020       -0.79740       -0.81080
C         -4.92510       -1.38010       -1.84930
C         -5.43500       -2.69230       -1.75240
C         -5.17290       -3.45620       -0.60820
C         -4.41950       -2.92760        0.44100
C         -3.93090       -1.61680        0.32500
N         -3.18970       -1.09570        1.46620
O         -3.60760       -0.05590        1.99010
O         -2.19220       -1.73380        1.83340
N         -5.70280       -4.82320       -0.50630
O         -6.22800       -5.30790       -1.51600
O         -5.59840       -5.39430        0.58610
N         -5.19510       -0.64240       -3.09080
O         -5.12490        0.59370       -3.04840
O         -5.47350       -1.30120       -4.09980
N          0.68120       -1.48200       -0.79270
C          1.39170       -1.96990        0.34160
C          2.56910       -1.34360        0.81520
C          3.22840       -1.74590        1.99160
C          2.71530       -2.81440        2.72730
C          1.56690       -3.48470        2.29440
C          0.91410       -3.06810        1.11410
N         -0.28120       -3.83770        0.70700
O         -0.75190       -3.62620       -0.42170
O         -0.74090       -4.66370        1.50520
N          3.39990       -3.25240        3.95280
O          4.46770       -2.69690        4.23780
O          2.86770       -4.15300        4.61280
N          3.21180       -0.27440        0.06250
O          3.47790       -0.48210       -1.12750
O          3.50800        0.75200        0.69190
N          0.47480        3.25010       -0.43950
C          1.88160        3.41190       -0.51780
C          2.53560        3.02000       -1.70380
C          3.93360        3.09830       -1.82120
C          4.71300        3.57850       -0.76420
C          4.06950        3.95150        0.42340
C          2.67860        3.85440        0.55800
N          2.05210        4.09210        1.84400
O          1.02970        4.79080        1.84700
O          2.54180        3.52510        2.82740
N          4.88500        4.50500        1.48660
O          5.89230        3.86940        1.81610
O          4.53480        5.60270        1.93550
N          4.57990        2.67770       -3.07170
O          3.84840        2.39640       -4.03020
O          5.81760        2.65580       -3.09410
H         -3.99880        1.09960       -1.62660
H         -6.02400       -3.11480       -2.56820
H         -4.20990       -3.51520        1.33530
H         -0.01310       -2.16800       -1.11380
H          4.13430       -1.23030        2.31430
H          1.18100       -4.32680        2.87130
H          0.02740        3.85380        0.26680
H          1.94030        2.64000       -2.53460
H          5.79650        3.65490       -0.85230
