33
7.534
C         -0.10780       -0.23050       -0.32980
C         -1.16350       -1.15190       -0.11910
C         -2.50960       -0.75670        0.09090
C         -2.79090        0.63020       -0.03980
C         -1.79790        1.60770       -0.30170
C         -0.46490        1.13770       -0.36010
N          0.59050        2.12140       -0.52700
O          0.63680        2.70860       -1.61760
O          1.31260        2.35070        0.45300
N         -2.08930        2.99250       -0.26830
N         -4.17910        1.07300        0.10540
O         -4.84640        0.56960        1.02210
O         -4.59730        1.92110       -0.69720
N         -3.55130       -1.71400        0.17420
N         -0.84430       -2.57810       -0.09510
O         -1.33870       -3.25860        0.81570
O         -0.07130       -3.00590       -0.96530
N          1.24980       -0.62700       -0.45520
C          1.95320       -0.79470        0.83810
C          3.46340       -0.92760        0.60750
O          3.96960        0.32100        0.14060
N          5.35660        0.27590       -0.12510
O          5.93670       -0.78890        0.09690
O          5.80090        1.34190       -0.54480
H         -3.04950        3.22990       -0.54330
H         -1.43850        3.59100       -0.78420
H         -4.40250       -1.37570        0.63820
H         -3.27740       -2.61150        0.58870
H          1.31480       -1.50680       -0.99020
H          1.58580       -1.69890        1.33650
H          1.76050        0.05890        1.49640
H          3.65140       -1.71850       -0.12950
H          3.93760       -1.18560        1.56220
