23
6.959
C         -1.14190        0.18400       -0.22460
C         -0.98880       -1.04830        0.43500
C          0.26150       -1.52180        0.84740
C          1.40560       -0.75050        0.59160
C          1.33710        0.50460       -0.05270
C          0.04870        0.90580       -0.50070
N         -0.04250        2.12770       -1.29380
O         -0.54450        2.03610       -2.42100
O          0.39110        3.16630       -0.77540
N          2.50170        1.19780       -0.44950
N          2.69100       -1.29880        1.03370
O          2.81860       -2.53030        1.01370
O          3.55610       -0.49850        1.41850
N         -2.13600       -1.90730        0.70670
O         -2.31170       -2.24220        1.88410
O         -2.82980       -2.24550       -0.25890
C         -2.49990        0.69230       -0.64390
H          0.34130       -2.48450        1.35440
H          3.32410        1.01500        0.13740
H          2.38700        2.20800       -0.57270
H         -2.74470        0.33230       -1.64770
H         -3.28180        0.37180        0.05210
H         -2.54220        1.78620       -0.63380
