51
7.554
C          1.13750       -0.49810        0.11170
C          0.02300       -1.38570       -0.06970
C         -1.33620       -0.99920       -0.20020
C         -1.55240        0.40600       -0.19440
C         -0.52020        1.36560       -0.05450
C          0.80320        0.87340        0.08780
N          1.82000        1.87550        0.32600
O          2.12530        2.09620        1.50550
O          2.32710        2.41080       -0.67070
N         -0.76130        2.76390       -0.10320
C         -0.77600        3.33800       -1.46370
C         -0.95820        4.86110       -1.41800
O          0.16570        5.48880       -0.80700
N          0.00450        5.73430        0.57900
O          0.99520        6.25770        1.08470
O         -1.07880        5.44200        1.08930
N         -2.92490        0.89500       -0.33310
O         -3.60900        0.41230       -1.24890
O         -3.30150        1.77990        0.44780
N         -2.44470       -1.84720       -0.21250
C         -2.51280       -3.27200        0.12120
C         -3.95970       -3.68580        0.42780
O         -4.36750       -3.04400        1.63510
N         -5.70010       -3.35540        1.98970
O         -6.05750       -2.80430        3.02810
O         -6.31630       -4.11860        1.24460
N          0.36560       -2.78310       -0.26480
O          0.23960       -3.24570       -1.40640
O          0.78370       -3.40100        0.72610
N          2.42050       -1.05800        0.18670
C          3.71060       -0.36740        0.19810
C          4.86330       -1.37260        0.06360
O          6.08940       -0.64770        0.05240
N          7.21680       -1.49350       -0.07120
O          7.00650       -2.70520       -0.13860
O          8.27710       -0.87290       -0.09210
H         -1.63610        3.00690        0.39180
H         -1.59480        2.90020       -2.04610
H          0.16500        3.10770       -1.97470
H         -0.98940        5.23020       -2.44990
H         -1.92130        5.14590       -0.97800
H         -3.20800       -1.53190       -0.82520
H         -2.15630       -3.86780       -0.72350
H         -1.90490       -3.47550        1.00850
H         -4.61100       -3.38940       -0.40410
H         -3.98940       -4.77440        0.55780
H          2.44310       -1.91550        0.75430
H          3.84310        0.19050        1.13060
H          3.78330        0.33160       -0.64050
H          4.74250       -1.93520       -0.87110
H          4.83690       -2.06630        0.91370
