40
7.058
C          3.78780       -1.88680        0.99770
C          2.97030       -0.70410        0.54020
C          3.55650        0.54620        0.28170
C          2.80530        1.64890       -0.14810
C          1.42060        1.51640       -0.36080
C          0.75920        0.27530       -0.14800
C          1.58090       -0.80380        0.29480
N          0.94240       -2.09600        0.48310
O          0.50100       -2.33610        1.60970
O          0.83410       -2.80980       -0.51840
C         -0.70990        0.07270       -0.37910
C         -1.66790        0.34020        0.64920
C         -3.06800        0.18530        0.48290
C         -3.50140       -0.32180       -0.75440
C         -2.61170       -0.60090       -1.79900
C         -1.23340       -0.39630       -1.61590
N         -0.36450       -0.69390       -2.77270
O          0.72540       -0.11170       -2.84440
O         -0.78540       -1.50730       -3.60350
N         -4.91390       -0.59060       -1.00720
O         -5.49220       -1.34770       -0.21970
O         -5.41350       -0.05210       -2.00160
C         -4.04550        0.52430        1.58310
N         -1.17760        0.79290        1.95080
O         -1.39200        0.05850        2.91910
O         -0.55830        1.86290        1.97280
N          0.70290        2.72100       -0.83550
O          1.27260        3.81150       -0.70650
O         -0.41760        2.57260       -1.34100
N          4.99440        0.74930        0.43060
O          5.35250        1.67330        1.16950
O          5.73820       -0.00650       -0.20470
H          3.19900       -2.59290        1.59010
H          4.19830       -2.41460        0.13140
H          4.60780       -1.57560        1.65310
H          3.30900        2.60060       -0.32930
H         -2.99870       -0.97230       -2.75010
H         -4.21610       -0.35050        2.21790
H         -3.68690        1.35240        2.20260
H         -5.00370        0.86700        1.17940
