40
7.592
N          0.68540       -0.88140       -0.45040
C          1.45510        0.30850       -0.33140
C          1.51380        1.05160        0.88170
C          2.24870        2.25620        1.05020
C          2.85080        2.77710       -0.11320
C          2.83470        2.08210       -1.33330
C          2.15890        0.85480       -1.43210
N          2.20190        0.16190       -2.73170
O          2.51990        0.82350       -3.72720
O          1.94960       -1.05150       -2.73930
N          3.56880        4.05630       -0.08270
O          4.15650        4.35990        0.96580
O          3.56150        4.73570       -1.11710
N          2.17910        2.99870        2.24820
N          0.89240        0.48750        2.06810
O          1.65570        0.07410        2.95090
O         -0.34440        0.47430        2.12110
C         -0.72220       -1.09690       -0.33370
C         -1.71140       -0.11880       -0.55190
C         -3.07590       -0.36190       -0.34640
C         -3.49030       -1.62860        0.08800
C         -2.57100       -2.66820        0.34320
C         -1.20380       -2.37710        0.07090
N         -0.22640       -3.45000        0.24090
O          0.59410       -3.61660       -0.67310
O         -0.28390       -4.11630        1.28420
N         -3.00450       -3.98800        0.60480
N         -4.93090       -1.83410        0.27000
O         -5.69020       -1.20410       -0.47830
O         -5.29390       -2.60750        1.16780
N         -1.37690        1.18580       -1.08720
O         -0.83550        1.21540       -2.19920
O         -1.64920        2.17010       -0.39190
H          1.08130       -1.53920       -1.15200
H          3.34640        2.50120       -2.20180
H          2.08390        2.45980        3.11140
H          2.92550        3.69550        2.36170
H         -3.80570        0.42670       -0.53600
H         -3.91930       -4.04800        1.06790
H         -2.32870       -4.56850        1.11300
