23
7.672
O         -0.38610        2.73840       -0.96520
C         -0.22640        1.46340       -0.48520
C          1.06780        0.92170       -0.47700
C          1.33940       -0.41720       -0.12670
C          0.23810       -1.16280        0.36900
C         -1.08640       -0.64490        0.46500
C         -1.29180        0.67180       -0.01900
N         -2.63610        1.25520        0.00580
O         -3.41620        0.89210        0.89730
O         -2.89470        2.10900       -0.85680
N         -2.17750       -1.49120        0.78270
N          0.47680       -2.53990        0.80650
O          1.20520       -3.24860        0.09520
O         -0.06620       -2.90780        1.85940
N          2.66540       -0.90360       -0.05140
N          2.17140        1.77950       -0.87060
O          2.80770        1.43960       -1.87940
O          2.42850        2.74790       -0.14360
H         -1.32930        2.95340       -1.13710
H         -3.01250       -0.99960        1.12310
H         -1.94900       -2.25670        1.42750
H          3.32410       -0.47480       -0.70830
H          2.74770       -1.92490       -0.11130
