40
7.035
C         -0.79720       -0.93240       -1.48180
C         -1.77740       -0.30070       -0.50820
C         -2.68800       -1.08170        0.24270
C         -3.59250       -0.53530        1.16720
C         -3.61230        0.84930        1.35070
C         -2.75100        1.67540        0.62200
C         -1.84970        1.09250       -0.28670
N         -0.97420        2.01540       -0.99240
O         -1.51340        2.81630       -1.76230
O          0.23720        1.93420       -0.75260
N         -4.54920        1.44320        2.31310
O         -4.45370        2.65840        2.52670
O         -5.37620        0.69070        2.84350
N         -2.73940       -2.52440        0.07680
O         -2.24420       -3.20680        0.97940
O         -3.26650       -2.94660       -0.95780
C          0.41010       -1.65360       -0.83720
C          1.61610       -0.77700       -0.54600
C          2.47680       -0.32930       -1.57650
C          3.58710        0.49920       -1.34800
C          3.87330        0.89430       -0.03900
C          3.07160        0.46680        1.02390
C          1.96040       -0.35270        0.75660
N          1.16510       -0.73990        1.91140
O          1.71710       -1.45470        2.75370
O          0.00610       -0.30940        1.96450
N          5.02890        1.76150        0.22380
O          5.78090        2.01400       -0.72590
O          5.17790        2.17880        1.37930
N          2.25250       -0.72890       -2.95550
O          2.54170       -1.89310       -3.25100
O          1.78330        0.12590       -3.71370
H         -0.46660       -0.19680       -2.22120
H         -1.35020       -1.66460       -2.08330
H         -4.26250       -1.18750        1.72770
H         -2.76700        2.75750        0.75630
H          0.10810       -2.19790        0.06260
H          0.73420       -2.45060       -1.51800
H          4.20810        0.82400       -2.18300
H          3.29440        0.76670        2.04840
