27
6.22
C          0.89920       -1.12010       -0.02060
C         -0.50140       -1.29400       -0.06930
C         -1.41900       -0.22340        0.00690
C         -0.87200        1.07740        0.07540
C          0.51710        1.33430        0.08020
C          1.37130        0.20960        0.04880
N          2.81040        0.43250        0.07800
O          3.41540        0.30230       -0.99220
O          3.30440        0.73340        1.17050
C          1.06210        2.74070        0.16420
N         -1.78560        2.21030        0.13250
O         -1.92590        2.75660        1.23250
O         -2.34270        2.52960       -0.92390
C         -2.91140       -0.44960       -0.05370
N         -1.02500       -2.64290       -0.22180
O         -1.25550       -3.27090        0.81790
O         -1.19400       -3.04410       -1.37840
C          1.84930       -2.29110       -0.11030
H          2.02510        2.83620       -0.34690
H          0.40370        3.46340       -0.32760
H          1.18610        3.02910        1.21260
H         -3.25270       -0.39580       -1.09220
H         -3.45680        0.29050        0.54030
H         -3.19980       -1.41970        0.36090
H          1.41830       -3.20620        0.30600
H          2.76280       -2.11540        0.46650
H          2.11650       -2.47260       -1.15600
