21
6.927
C          1.54950       -0.31120        0.12950
C          1.08530        1.01160        0.17850
C         -0.28700        1.27970        0.03880
C         -1.20490        0.24410       -0.12450
C         -0.74330       -1.07050       -0.15120
C          0.62700       -1.35620       -0.02750
N         -1.66030       -2.19000       -0.24450
O         -1.42120       -3.03900       -1.11020
O         -2.57690       -2.22830        0.58280
N         -2.61180        0.52780       -0.25920
O         -3.15260        1.10590        0.68880
O         -3.15020        0.16690       -1.31040
N         -0.70450        2.66820        0.01500
O         -1.36700        3.03260       -0.96190
O         -0.32190        3.38400        0.94700
C          3.01200       -0.60950        0.30370
H          1.79350        1.83090        0.31150
H          0.97510       -2.39020       -0.04120
H          3.62600        0.20690       -0.09060
H          3.29190       -1.51830       -0.23920
H          3.24130       -0.74530        1.36500
