46
6.998
N          1.68370       -0.50110       -0.41080
C          2.48630       -1.31520       -1.18330
C          2.27370       -1.50050       -2.48730
C          1.18810       -0.68270       -3.06300
N          0.32590        0.03450       -2.43080
C          0.39590       -0.03070       -0.97010
N         -0.66060       -0.89120       -0.43010
C         -1.98180       -0.47220       -0.70240
C         -2.65630       -0.96350       -1.84820
C         -3.93060       -0.52300       -2.23930
C         -4.57330        0.44140       -1.46500
C         -3.95860        0.95590       -0.31660
C         -2.67270        0.50640        0.05890
N         -2.08780        1.10040        1.28010
O         -2.68200        2.05600        1.79500
O         -1.02980        0.62660        1.72160
N         -5.91080        0.91320       -1.85200
O         -6.42170        1.80670       -1.16540
O         -6.44080        0.38400       -2.83690
N         -2.06590       -2.02040       -2.66080
O         -1.83660       -3.10490       -2.11040
O         -1.91940       -1.78130       -3.86850
C          2.09420       -0.02590        0.84630
C          2.62280        1.26750        1.03420
C          3.04130        1.76650        2.27990
C          2.94410        0.93870        3.40180
C          2.45210       -0.36340        3.27920
C          2.04540       -0.81610        2.01180
N          1.53500       -2.16790        1.94580
O          0.30550       -2.29630        1.99620
O          2.37260       -3.07580        1.89220
N          3.37480        1.43600        4.71540
O          3.81180        2.59220        4.77160
O          3.27540        0.66490        5.67780
N          2.81500        2.13970       -0.10430
O          1.88210        2.90380       -0.37840
O          3.90330        2.06730       -0.68530
H          3.32080       -1.79830       -0.68040
H          2.88030       -2.12550       -3.12610
H          1.14870       -0.69110       -4.16560
H          0.22080        0.99190       -0.62040
H         -0.51180       -0.96680        0.57930
H         -4.40160       -0.93930       -3.12990
H         -4.47730        1.70580        0.28270
H          3.44220        2.77740        2.35630
H          2.37760       -1.02360        4.14350
