54
8.425
O         -1.17560        1.31050        1.15280
C         -1.98400        0.14690        1.40190
C         -1.92370       -0.81970        0.20410
C         -2.64830        0.01670       -0.97520
C         -2.09020        1.51930       -1.07660
C         -0.83160        1.48780       -0.22000
O          0.29900        2.32570       -0.36850
C          1.54990        1.55950       -0.10290
C          1.57500        0.91040        1.30680
O          0.79550       -0.29580        1.42680
C          0.64740       -1.21440        0.35320
C          1.75660       -0.99950       -0.72080
C          1.85300        0.48870       -1.20960
O          3.22330        0.72170       -1.60140
N          3.48610        0.56310       -2.98550
O          4.65640        0.80170       -3.26780
O          2.55570        0.19550       -3.69790
O          1.52400       -1.81990       -1.87560
N          1.87090       -3.18000       -1.69150
O          2.38380       -3.48040       -0.61330
O          1.61380       -3.87620       -2.66790
O         -0.63580       -1.24360       -0.32240
C          2.99570        0.66860        1.86120
O          3.76100        1.86870        1.91470
N          3.58560        2.60380        3.11480
O          4.28830        3.60960        3.15990
O          2.76060        2.17510        3.92100
O         -1.75160        1.90440       -2.40560
N         -2.87860        2.27800       -3.17380
O         -2.57950        2.71710       -4.27970
O         -3.98310        2.09880       -2.65860
O         -2.45530       -0.64000       -2.23480
N         -3.31020       -1.75210       -2.43380
O         -3.14700       -2.28650       -3.52610
O         -4.08110       -2.03500       -1.51620
C         -1.73980       -0.43710        2.80410
O         -2.75890       -1.37060        3.15980
N         -2.35180       -2.72460        3.08810
O         -3.18520       -3.49590        3.55460
O         -1.27610       -2.95860        2.53700
H         -3.01850        0.51790        1.45030
H         -2.49450       -1.73070        0.39780
H         -3.71850        0.12160       -0.74720
H         -2.78930        2.22590       -0.60800
H         -0.39650        0.63140       -0.66290
H          2.31400        2.34440       -0.14370
H          1.10290        1.62590        1.98970
H          0.74460       -2.21080        0.79110
H          2.73570       -1.24090       -0.29050
H          1.17020        0.66840       -2.04800
H          2.96420        0.13990        2.82330
H          3.54910       -0.01190        1.20930
H         -1.82660        0.38960        3.52140
H         -0.73130       -0.81270        2.98200
