26
7.053
C         -1.42720       -1.22750       -0.03690
C         -0.80480       -2.48080        0.05710
C          0.56310       -2.53830        0.21290
C          1.30310       -1.34760        0.17540
C          0.71660       -0.03540       -0.01620
C         -0.71660        0.03540        0.01630
C         -1.29620        1.36200        0.09870
C         -0.55830        2.54810       -0.02620
C          0.80010        2.47100       -0.24380
C          1.42020        1.21310       -0.23720
N          2.82080        1.23260       -0.66730
O          3.13120        0.43390       -1.55950
O          3.56630        2.07270       -0.15060
N         -2.68630        1.56160        0.51690
O         -3.35050        2.40900       -0.09050
O         -3.06720        0.89640        1.48790
N          2.71300       -1.50590        0.54180
O          3.34810       -2.41410       -0.00620
O          3.14060       -0.74360        1.41720
N         -2.84760       -1.28830       -0.39140
O         -3.20470       -0.58660       -1.34560
O         -3.56390       -2.06770        0.24730
H         -1.38130       -3.40520        0.01700
H          1.04860       -3.50410        0.35480
H         -1.03860        3.52470        0.03790
H          1.37140        3.38460       -0.40960
