51
7.461
N         -0.26250        0.84440       -3.19130
C         -1.09440        0.16180       -2.35720
C         -0.76390       -0.16770       -1.03200
C          0.52940        0.18050       -0.60600
C          1.43080        0.88690       -1.42460
C          0.97500        1.20140       -2.72720
N          1.90430        1.92250       -3.63610
O          1.78070        1.71470       -4.85090
O          2.73370        2.69500       -3.12860
N          2.73990        1.16980       -0.95860
C          3.51840        0.59790        0.07400
C          4.14750        1.40410        1.05450
C          4.86080        0.86060        2.14240
C          4.95820       -0.52770        2.27330
C          4.36160       -1.36870        1.33190
C          3.66020       -0.79640        0.25530
N          3.12880       -1.72570       -0.72770
O          3.53320       -1.61900       -1.89090
O          2.30700       -2.55440       -0.31580
N          5.69980       -1.10640        3.40280
O          5.70070       -2.33870        3.51060
O          6.27440       -0.32370        4.16880
N          4.05750        2.86380        0.98480
O          3.97520        3.47700        2.05580
O          4.07650        3.38030       -0.13940
N         -1.55470       -0.91000       -0.10860
C         -2.93810       -0.71780        0.17870
C         -3.89390       -1.76500        0.10190
C         -5.26970       -1.52790        0.31660
C         -5.71590       -0.23610        0.62540
C         -4.80870        0.81780        0.74130
C         -3.44880        0.55630        0.52360
N         -2.53710        1.65810        0.75240
O         -2.38610        2.45940       -0.17670
O         -1.97790        1.70070        1.85440
N         -7.14760        0.00850        0.85570
O         -7.91360       -0.95870        0.76990
O         -7.48990        1.16510        1.13140
N         -3.48720       -3.14910       -0.20450
O         -2.27790       -3.41540       -0.14000
O         -4.37500       -3.96400       -0.48160
N         -2.40910       -0.27460       -2.83690
O         -3.27890        0.59590       -2.97570
O         -2.58150       -1.49250       -2.99200
H          0.80840       -0.07530        0.41570
H          3.11660        2.06310       -1.32740
H          5.32710        1.52050        2.87590
H          4.44310       -2.45320        1.41590
H         -1.31050       -1.91420       -0.18310
H         -5.98740       -2.34690        0.24220
H         -5.13840        1.82300        1.00410
