19
7.532
N          2.54890       -0.26920        0.91740
O          2.96980        0.69570        1.57270
O          3.18570       -1.30660        0.70000
C          1.19350       -0.16450        0.36150
C          0.40730        0.97760        0.58600
C         -0.87480        1.00890        0.02400
C         -1.39590       -0.04540       -0.73560
C         -0.59520       -1.17170       -0.94400
C          0.69850       -1.24090       -0.40250
N         -1.11380       -2.29400       -1.73990
O         -0.38460       -3.28440       -1.87270
O         -2.24530       -2.17390       -2.22550
N         -1.71700        2.16880        0.22190
O         -1.50530        3.14410       -0.50870
O         -2.62120        2.05920        1.05920
O          0.80910        2.05380        1.32730
H         -2.40190        0.02340       -1.14880
H          1.31420       -2.12530       -0.57320
H          1.72810        1.94430        1.65860
