34
7.5
N         -1.29770        2.18860        0.90850
O         -2.13020        3.10240        0.86750
O         -0.15370        2.30400        1.36820
C         -1.70370        0.87240        0.36840
C         -0.74330       -0.09280       -0.06410
C         -1.27720       -1.30780       -0.57590
C         -2.65800       -1.56370       -0.65270
C         -3.55630       -0.58960       -0.21400
C         -3.09170        0.62650        0.29470
N         -5.00180       -0.84560       -0.28990
O         -5.75570       -0.03270        0.25840
O         -5.36840       -1.85860       -0.89860
N         -0.39450       -2.37600       -1.04680
O          0.56570       -2.04530       -1.75240
O         -0.66310       -3.52660       -0.68850
C          0.73530        0.13560        0.03750
C          1.47930        0.79510       -0.98480
C          2.86820        1.01350       -0.88490
C          3.55650        0.56960        0.24640
C          2.87920       -0.09530        1.27110
C          1.49040       -0.30800        1.16240
N          0.85570       -1.02870        2.27720
O         -0.30070       -0.71540        2.58510
O          1.51760       -1.92070        2.81890
N          5.00410        0.80280        0.35900
O          5.57750        0.35610        1.36010
O          5.55300        1.43470       -0.55200
N          0.83640        1.26350       -2.22280
O          1.50270        1.21530       -3.26260
O         -0.32590        1.68030       -2.14340
H         -3.01910       -2.51450       -1.04800
H         -3.80320        1.38150        0.63410
H          3.40210        1.52420       -1.68830
H          3.42040       -0.44480        2.15210
