22
7.253
N          3.32480        0.94130        0.15540
O          3.80530        0.74310        1.27630
O          3.90470        1.41290       -0.82790
C          1.94070        0.58370       -0.02200
C          0.95760        1.55000        0.24230
C         -0.37850        1.17090        0.07220
C         -0.74230       -0.12210       -0.32430
C          0.27880       -1.03980       -0.60040
C          1.63180       -0.71760       -0.44760
Cl         2.87400       -1.88460       -0.75940
N         -0.09000       -2.35660       -1.05730
O         -0.38900       -3.17810       -0.18260
O         -0.07680       -2.54710       -2.27770
O         -2.05230       -0.44660       -0.53760
C         -2.68250       -0.98970        0.63140
N         -1.42520        2.13380        0.30890
O         -1.69670        2.90140       -0.62000
O         -1.95900        2.10230        1.42390
Cl         1.37840        3.14540        0.77090
H         -3.05210       -1.99060        0.39030
H         -3.53770       -0.35750        0.88710
H         -2.01400       -1.05460        1.49810
