51
7.438
N         -0.72020        0.84230        0.04710
C         -1.37720        1.74970        0.81580
C         -0.86070        3.03950        0.96960
C          0.31310        3.40710        0.30280
C          0.96770        2.44210       -0.46780
C          0.46520        1.14700       -0.54040
N          1.05510        0.04150       -1.15840
C          2.40580       -0.34170       -1.30900
C          3.33340       -0.48110       -0.25440
C          4.66280       -0.90230       -0.45910
C          5.08680       -1.23110       -1.74940
C          4.19350       -1.17630       -2.82010
C          2.87120       -0.76070       -2.58060
N          1.95880       -0.79080       -3.72050
O          2.35230       -0.27170       -4.77200
O          0.88320       -1.38650       -3.56650
N          6.47030       -1.67140       -1.97300
O          6.75230       -2.11970       -3.09100
O          7.26040       -1.56850       -1.02660
N          2.95540       -0.25990        1.13260
O          2.60750        0.88330        1.44930
O          3.06940       -1.22420        1.89750
N          2.16400        2.83170       -1.18050
O          2.26970        2.48120       -2.36250
O          2.99790        3.50580       -0.56390
N         -1.53230        4.02880        1.79950
O         -2.75640        3.91700        1.95220
O         -0.83960        4.93720        2.27500
N         -2.53800        1.30110        1.49340
C         -3.10650       -0.00360        1.44950
C         -4.48680       -0.20570        1.17570
C         -5.06110       -1.49260        1.08430
C         -4.26080       -2.62120        1.27400
C         -2.90490       -2.47960        1.56570
C         -2.35260       -1.18700        1.65530
N         -0.94890       -1.13770        2.04190
O         -0.15320       -1.77310        1.33060
O         -0.66290       -0.50800        3.06730
N         -4.85050       -3.96360        1.17470
O         -4.12450       -4.92640        1.45150
O         -6.03250       -4.04260        0.81870
N         -5.39340        0.92940        0.95550
O         -4.90440        1.97350        0.50460
O         -6.58720        0.76820        1.23640
H          0.71730        4.41480        0.38910
H          0.43690       -0.76230       -1.00540
H          5.34370       -0.98560        0.38970
H          4.50470       -1.45950       -3.82620
H         -3.24480        2.05270        1.45000
H         -6.12360       -1.60550        0.86160
H         -2.27520       -3.35420        1.73500
