48
7.274
C         -0.77170        0.33950       -1.02080
C          0.55380       -0.00220       -1.37470
C          1.48960       -0.37720       -0.40520
C          1.07750       -0.41100        0.93090
C         -0.24750       -0.08160        1.29810
C         -1.22020        0.30890        0.33190
C         -2.62390        0.66430        0.71380
C         -3.63000       -0.32320        0.90810
C         -4.95160        0.00220        1.26950
C         -5.30420        1.34300        1.44280
C         -4.35780        2.35480        1.26280
C         -3.03930        2.01180        0.90610
N         -2.10070        3.12590        0.73510
O         -2.53100        4.14320        0.18060
O         -0.94300        2.96840        1.14130
N         -6.68170        1.69180        1.81750
O         -6.91310        2.87270        2.10510
O         -7.51990        0.78170        1.82090
N         -3.33320       -1.75020        0.74320
O         -2.58060       -2.07640       -0.18270
O         -3.84660       -2.52840        1.55450
N         -0.56060       -0.16290        2.74230
O         -1.54600        0.45520        3.16450
O          0.18000       -0.86020        3.44670
C          2.87310       -0.72740       -0.78160
C          3.21920       -1.99940       -1.28600
C          4.52870       -2.35070       -1.65680
C          5.54860       -1.40480       -1.50930
C          5.26760       -0.12960       -1.00800
C          3.94220        0.18620       -0.66210
N          3.69760        1.53040       -0.16600
O          4.24270        1.83280        0.90060
O          2.97010        2.25610       -0.85230
N          6.92620       -1.75360       -1.88400
O          7.14550       -2.92350       -2.22020
O          7.77350       -0.85370       -1.83790
N          2.19870       -3.02320       -1.43810
O          1.65360       -3.42720       -0.40540
O          1.96640       -3.40410       -2.59010
N         -1.66300        0.72580       -2.13740
O         -2.88610        0.66660       -1.95900
O         -1.12860        1.10070       -3.18850
H          0.86210        0.03210       -2.42210
H          1.79650       -0.70530        1.69880
H         -5.69150       -0.78720        1.41060
H         -4.63420        3.40160        1.39820
H          4.73700       -3.34740       -2.04790
H          6.05570        0.61490       -0.88800
