20
8.507
O         -0.70060        1.69420        0.67620
C         -1.00220        0.57030       -0.14480
C         -0.29910       -0.67160        0.42880
O         -0.55780       -1.81250       -0.39860
N         -1.77330       -2.47520       -0.09960
O         -1.94870       -3.47670       -0.78720
O         -2.48320       -1.97600        0.77270
C          1.23040       -0.49510        0.48150
O          1.71730       -0.14780       -0.81430
N          3.12690       -0.00580       -0.84560
O          3.54800        0.29330       -1.95970
O          3.73140       -0.18680        0.21150
N         -1.31940        2.88510        0.22060
O         -1.06130        3.85280        0.93150
O         -2.00660        2.80600       -0.79730
H         -2.08550        0.40110       -0.16520
H         -0.67140        0.74020       -1.17770
H         -0.60750       -0.84320        1.46890
H          1.67920       -1.44550        0.79770
H          1.48340        0.29330        1.20080
