30
7.317
N         -0.51650        0.25190       -0.64400
N          0.48660        0.63390       -0.00140
C          1.65930        0.26030       -0.67990
N          2.03670        1.10430       -1.68160
C          3.15470        0.80320       -2.39150
C          3.93230       -0.31570       -2.13680
C          3.56190       -1.17790       -1.10330
C          2.40810       -0.87020       -0.36650
N          2.00540       -1.74440        0.71720
O          1.45680       -1.23950        1.70520
O          2.28180       -2.94520        0.59740
N          5.12120       -0.56990       -2.93940
O          5.81850       -1.54430       -2.63030
O          5.35960        0.20480       -3.87420
C         -1.68690        0.55480        0.07260
N         -2.13600        1.83340       -0.07560
C         -3.25640        2.20510        0.59610
C         -3.96700        1.34170        1.41530
C         -3.52300        0.02630        1.56150
C         -2.36640       -0.36240        0.86860
N         -1.88810       -1.72470        0.99660
O         -2.10470       -2.29310        2.07480
O         -1.33890       -2.24780        0.01850
N         -5.16320        1.81280        2.10040
O         -5.46810        3.00480        1.96970
O         -5.79970        0.98690        2.76660
H          3.39140        1.51600       -3.17940
H          4.15060       -2.06430       -0.87150
H         -3.55220        3.24040        0.43690
H         -4.05780       -0.68130        2.19330
