21
6.936
C         -1.35770       -0.26280        0.13530
C         -0.95050       -1.59990       -0.01500
C          0.39770       -1.92370       -0.19770
C          1.35780       -0.90310       -0.22340
C          0.98170        0.42990       -0.07340
C         -0.36770        0.74490        0.11060
N         -0.76710        2.13450        0.22080
O         -0.61200        2.83140       -0.78740
O         -1.25090        2.49640        1.29810
N          1.97130        1.47740       -0.14090
O          2.59790        1.57620       -1.20040
O          2.09910        2.18620        0.86160
N          2.75080       -1.28600       -0.35330
O          3.52920       -0.85150        0.50180
O          3.03680       -2.05440       -1.27820
C         -2.82060        0.04060        0.32640
H         -1.68630       -2.40520        0.00660
H          0.68810       -2.96860       -0.30940
H         -3.01100        0.35190        1.35800
H         -3.43900       -0.84030        0.12250
H         -3.14760        0.82600       -0.36240
