34
6.968
O         -0.16750        0.37540        2.50900
C         -0.18000        0.20710        1.29160
C          1.15730       -0.00180        0.72820
C          1.95180        1.09380        0.34850
C          3.28080        0.92410       -0.07780
C          3.83290       -0.36360       -0.09410
C          3.08200       -1.46810        0.33070
C          1.75600       -1.27230        0.75440
N          1.02350       -2.43260        1.25060
O          1.64840       -3.23430        1.95340
O         -0.15900       -2.54230        0.90650
N          5.21980       -0.55550       -0.54430
O          5.66180       -1.71070       -0.55080
O          5.85130        0.45040       -0.89010
N          1.42740        2.45470        0.40070
O          0.27820        2.64080       -0.01730
O          2.18380        3.32920        0.83800
C         -1.46860        0.24020        0.52130
C         -2.58970        0.66480        1.26570
C         -3.87000        0.73510        0.69950
C         -4.05630        0.37240       -0.63700
C         -2.97230       -0.05790       -1.40730
C         -1.69380       -0.11480       -0.82000
N         -0.63550       -0.58270       -1.68480
O          0.26300        0.21820       -1.96750
O         -0.69760       -1.75190       -2.07560
N         -5.39620        0.44360       -1.23530
O         -6.33770        0.76930       -0.50090
O         -5.49650        0.17500       -2.43980
H          3.87190        1.78860       -0.38380
H          3.52020       -2.46730        0.34590
H         -2.47810        0.95160        2.31360
H         -4.70200        1.07190        1.31760
H         -3.10970       -0.35040       -2.44860
