42
7.916
C         -1.49240       -0.91750       -0.50360
C         -1.47360       -2.13580        0.20790
C         -0.26990       -2.76130        0.56050
C          0.94860       -2.16870        0.19430
C          1.02500       -0.95940       -0.53610
C         -0.22730       -0.36450       -0.84910
N         -0.23630        0.86000       -1.62270
O         -0.27280        1.91840       -0.98050
O         -0.11950        0.75290       -2.84760
N          2.28430       -0.45220       -0.94570
C          2.68490        0.88870       -0.49790
C          4.15700        0.93480       -0.06090
O          4.41690        2.24530        0.44070
N          5.75150        2.40310        0.88630
O          5.97360        3.52950        1.32400
O          6.49560        1.42720        0.79170
N          2.63840       -0.82640       -2.24550
O          2.14780       -1.87580       -2.67130
O          3.43510       -0.09430       -2.83290
N          2.16520       -2.84620        0.63430
O          2.22070       -4.06920        0.46570
O          3.02900       -2.14960        1.18220
N         -2.71840       -2.79770        0.60860
O         -3.70410       -2.65680       -0.12790
O         -2.69820       -3.44580        1.66210
N         -2.68780       -0.21620       -0.80330
C         -3.11310        0.72720        0.25160
C         -4.17290        1.69210       -0.29800
O         -4.49880        2.70490        0.65080
N         -5.46840        2.29970        1.59820
O         -5.77740        3.19800        2.37670
O         -5.84270        1.12770        1.55300
H         -0.27510       -3.70150        1.11540
H          2.49580        1.65330       -1.26290
H          2.08380        1.19100        0.37110
H          4.32420        0.19220        0.72810
H          4.81800        0.72020       -0.90740
H         -3.45790       -0.88550       -0.97180
H         -3.50410        0.16860        1.10940
H         -2.26720        1.31280        0.63070
H         -3.75690        2.21130       -1.17010
H         -5.06060        1.16550       -0.67240
