20
7.8
C         -1.59720        0.32300        0.20800
C         -0.68080        1.34490       -0.04270
C          0.68950        1.10100       -0.21490
C          1.14980       -0.23250       -0.14970
C          0.24610       -1.29020        0.09310
C         -1.11000       -0.98270        0.27600
N         -2.06330       -2.03970        0.54670
O         -2.87780       -2.29100       -0.35020
O         -2.02770       -2.55420        1.67070
O          0.60370       -2.61110        0.14310
N          2.57590       -0.52100       -0.33550
O          2.95000       -1.69400       -0.19460
O          3.32290        0.42540       -0.62230
O          1.50080        2.18540       -0.41710
N         -1.19230        2.69810       -0.12270
O         -1.24050        3.21520       -1.24510
O         -1.60090        3.19670        0.93340
H         -2.65600        0.53710        0.34590
H          1.57600       -2.73470        0.07090
H          2.43180        1.92410       -0.59280
