35
7.646
N          2.01270       -1.39810        1.33780
O          3.07050       -2.02980        1.44700
O          1.09620       -1.42430        2.17000
C          1.83900       -0.55940        0.12870
C          0.58250        0.00670       -0.22120
C          0.56390        0.77330       -1.41690
C          1.68570        0.99220       -2.23210
C          2.90250        0.42180       -1.84450
C          2.98310       -0.35080       -0.67330
N          4.11940        0.61350       -2.64480
O          4.01140        1.27390       -3.68890
O          5.17040        0.11050       -2.23200
O          1.51730        1.75220       -3.35690
N         -0.69190        1.36740       -1.82690
O         -1.44830        0.65280       -2.49410
O         -0.95800        2.47890       -1.35600
C         -0.66640       -0.16290        0.59000
C         -1.56840       -1.24600        0.37300
C         -2.75310       -1.39970        1.12020
C         -3.06980       -0.46760        2.11090
C         -2.22340        0.61550        2.36020
C         -1.03960        0.76490        1.60880
N         -0.20210        1.93560        1.93840
O         -0.77410        2.93190        2.39450
O          1.01750        1.84760        1.74490
N         -4.29940       -0.63130        2.90140
O         -4.54540        0.22590        3.75860
O         -5.00480       -1.61870        2.66070
N         -1.30920       -2.27260       -0.65110
O         -0.12990       -2.57470       -0.87460
O         -2.28910       -2.77280       -1.21370
H          3.93860       -0.79210       -0.38210
H          2.35510        1.84140       -3.86540
H         -3.41710       -2.24460        0.92850
H         -2.47580        1.33950        3.13710
