22
7.438
C         -0.19160       -1.24970        0.27230
C         -1.59380       -1.15680        0.22660
C         -2.18120        0.09060       -0.01500
C         -1.38450        1.22730       -0.19270
C          0.01500        1.09540       -0.12960
C          0.64250       -0.13820        0.09250
C          2.11160       -0.28520        0.12400
N          2.87100        0.49080       -0.57590
O          4.20350        0.12360       -0.36740
N          0.78090        2.32440       -0.20240
O          0.75470        2.93250       -1.27890
O          1.30950        2.70660        0.84870
N         -3.64500        0.20860       -0.07200
O         -4.30260       -0.83670       -0.00150
O         -4.12120        1.34440       -0.18580
N          0.37020       -2.56740        0.48430
O          1.04340       -3.04320       -0.43450
O          0.11580       -3.10810        1.56540
H         -2.20560       -2.04850        0.37030
H         -1.83140        2.20790       -0.36230
H          2.54570       -1.09440        0.73950
H          4.69280        0.77580       -0.90520
