22
8.15
N          2.88550       -0.91150       -0.17470
O          3.56780       -0.31420       -1.01870
O          3.29710       -1.80530        0.57530
C          1.46480       -0.55500       -0.07370
C          1.02690        0.76730       -0.34180
C         -0.35610        1.02070       -0.14910
C         -1.26130        0.00220        0.18210
C         -0.79350       -1.29360        0.38290
C          0.56990       -1.58520        0.27310
N         -1.70160       -2.39030        0.66050
O         -2.62220       -2.56010       -0.14410
O         -1.44430       -3.09110        1.64370
N         -2.66930        0.29200        0.32010
O         -3.17210        0.07080        1.42510
O         -3.24040        0.72910       -0.68290
N         -0.83650        2.38770       -0.24930
O         -1.43040        2.84110        0.73440
O         -0.58610        2.99470       -1.29790
N          1.94190        1.82260       -0.53460
H          0.92980       -2.60130        0.44610
H          1.58340        2.63690       -1.04410
H          2.84700        1.54250       -0.93250
