68
7.692
N          0.50780        0.18030       -0.40010
N         -0.37900       -0.40950        0.25580
C         -1.48130       -0.72220       -0.57900
C         -2.65750        0.06730       -0.57570
C         -3.77690       -0.16560       -1.44380
C         -3.67260       -1.28810       -2.30870
C         -2.54020       -2.11680       -2.30520
C         -1.47420       -1.82750       -1.44210
N         -0.35080       -2.75060       -1.43860
O          0.06980       -3.12150       -2.54030
O          0.06910       -3.12620       -0.33850
N         -4.75730       -1.66130       -3.23230
O         -4.90730       -2.86580       -3.46440
O         -5.46130       -0.75580       -3.69460
C         -4.99160        0.71850       -1.42970
C         -5.07620        1.91330       -2.21270
C         -6.22590        2.73160       -2.19940
C         -7.32120        2.37820       -1.40720
C         -7.28970        1.21860       -0.63040
C         -6.14080        0.40570       -0.64820
N         -6.19300       -0.81010        0.17360
O         -5.14670       -1.16610        0.72900
O         -7.27260       -1.40660        0.23390
N         -8.51870        3.23080       -1.39390
O         -9.38570        2.97940       -0.54780
O         -8.58120        4.14140       -2.22850
N         -3.96290        2.35810       -3.08330
O         -3.95350        3.54260       -3.43840
O         -3.11260        1.52050       -3.41440
N         -2.73830        1.13650        0.42010
O         -2.42390        0.86020        1.58300
O         -3.16190        2.23430        0.03940
C          1.55140        0.60380        0.45840
C          2.70710       -0.18110        0.66720
C          3.78390        0.18110        1.53600
C          3.64720        1.42540        2.21290
C          2.52500        2.24680        2.00400
C          1.50820        1.83620        1.12730
N          0.39860        2.75750        0.90530
O         -0.05090        2.84760       -0.24370
O          0.00480        3.40700        1.88070
N          4.67310        1.92830        3.15370
O          5.80810        1.43760        3.09700
O          4.33440        2.81870        3.94180
C          4.99150       -0.70000        1.68880
C          6.10800       -0.61350        0.80250
C          7.24250       -1.43870        0.94350
C          7.29130       -2.37910        1.97530
C          6.22150       -2.51150        2.86290
C          5.08900       -1.68480        2.71860
N          3.99750       -1.90340        3.68590
O          3.86810       -3.04020        4.15280
O          3.28730       -0.93280        3.97830
N          8.47900       -3.23290        2.13020
O          9.37960       -3.11500        1.29020
O          8.50270       -4.00850        3.09360
N          6.13810        0.34950       -0.31620
O          5.47290        1.38740       -0.20510
O          6.81650        0.04960       -1.30440
N          2.82020       -1.41220       -0.09690
O          2.80740       -1.30910       -1.32720
O          3.01480       -2.45010        0.54570
H         -2.48410       -2.98550       -2.96470
H         -6.26430        3.63830       -2.80580
H         -8.15000        0.94190       -0.01820
H          2.44260        3.21120        2.51020
H          8.08300       -1.34100        0.25380
H          6.26290       -3.25190        3.66390
