66
7.618
C          1.91220        3.25910       -0.83330
C          0.81350        3.28160       -1.70630
C          0.07340        2.11220       -1.94000
C          0.39190        0.88220       -1.30680
C          1.53750        0.90090       -0.44330
C          2.32480        2.07020       -0.17700
C          3.50840        2.03630        0.75160
C          3.37880        2.25410        2.15580
C          4.48210        2.21890        3.03140
C          5.75750        1.96620        2.52120
C          5.94470        1.75150        1.15420
C          4.83450        1.78920        0.28730
N          5.11630        1.55020       -1.13620
O          6.00700        0.73930       -1.41110
O          4.45440        2.19380       -1.95970
N          6.91170        1.92900        3.42990
O          6.67870        1.90670        4.64460
O          8.03840        1.92120        2.91950
N          2.07410        2.55440        2.76590
O          1.07880        2.00590        2.27570
O          2.05930        3.32710        3.72950
N          1.92740       -0.35600        0.21250
O          3.11220       -0.69530        0.13260
O          1.04200       -0.98550        0.80040
C         -0.42490       -0.36650       -1.52280
C         -1.54440       -0.69620       -0.68590
C         -2.35110       -1.87160       -0.85200
C         -1.99660       -2.72080       -1.93270
C         -0.90940       -2.43840       -2.77390
C         -0.13710       -1.28550       -2.56600
N          0.97960       -1.06830       -3.50010
O          1.98960       -0.51010       -3.05400
O          0.83900       -1.46880       -4.66020
N         -2.73620       -3.96150       -2.21470
O         -2.09370       -4.91710       -2.66310
O         -3.95300       -3.96300       -1.99150
C         -3.49710       -2.18900        0.07040
C         -4.82270       -1.72110       -0.17200
C         -5.89740       -2.01300        0.69120
C         -5.67360       -2.79030        1.82960
C         -4.39700       -3.27910        2.11520
C         -3.32910       -2.98140        1.24540
N         -2.01520       -3.52640        1.62220
O         -1.75510       -3.60380        2.82770
O         -1.26750       -3.88910        0.70530
N         -6.79070       -3.09790        2.73320
O         -6.60350       -3.96490        3.59550
O         -7.84330       -2.46860        2.57130
N         -5.14440       -0.91840       -1.36150
O         -6.25590       -1.08060       -1.87550
O         -4.28080       -0.12800       -1.76170
N         -1.89390        0.23160        0.40310
O         -2.08310       -0.25210        1.52400
O         -1.98690        1.42980        0.11680
N         -1.06040        2.23210       -2.87090
O         -1.67550        3.30360       -2.88240
O         -1.30430        1.25770       -3.59300
N          2.62780        4.53210       -0.64860
O          2.66950        5.30710       -1.61010
O          3.12930        4.74720        0.46190
H          0.53220        4.21230       -2.20510
H          4.34240        2.39450        4.09960
H          6.94320        1.55460        0.75960
H         -0.66240       -3.11980       -3.59180
H         -6.89860       -1.63940        0.46870
H         -4.22690       -3.88490        3.00700
