38
7.11
C         -2.69140        0.47210       -1.18750
C         -4.04190        0.83280       -1.01250
C         -4.65230        0.61710        0.22810
C         -3.93240        0.05050        1.28320
C         -2.58670       -0.29130        1.07350
C         -1.91910       -0.09270       -0.15040
C         -0.49770       -0.43680       -0.33980
C          0.49460        0.25100        0.24790
C          1.91430       -0.01670       -0.05220
C          2.55590       -1.21750        0.30700
C          3.90720       -1.48190        0.03010
C          4.66220       -0.50430       -0.62450
C          4.07990        0.71350       -0.99410
C          2.72030        0.93810       -0.70660
N          2.16800        2.22530       -1.11450
O          1.13780        2.21450       -1.79790
O          2.78300        3.23320       -0.74670
N          6.07890       -0.75610       -0.92290
O          6.56730       -1.81680       -0.51430
O          6.68880        0.10820       -1.56430
N          1.82940       -2.24670        1.02130
O          1.71400       -2.09740        2.24160
O          1.40800       -3.19300        0.34700
N         -1.89000       -0.88300        2.19670
O         -1.33310       -0.09910        2.97400
O         -1.93990       -2.11310        2.29220
N         -6.06190        0.98360        0.42180
O         -6.68980        1.37900       -0.56790
O         -6.52800        0.86980        1.56220
N         -2.11860        0.71500       -2.50930
O         -2.29330        1.84000       -2.99240
O         -1.55130       -0.23330       -3.06610
H         -4.59950        1.27410       -1.84000
H         -4.39670       -0.12840        2.25320
H         -0.29720       -1.24900       -1.04060
H          0.29610        1.08780        0.91840
H          4.35020       -2.43180        0.33040
H          4.66490        1.48320       -1.49950
