36
7.659
N         -0.32130       -0.53280       -0.04660
N          0.32130        0.53290        0.08230
C          1.70720        0.25760        0.14460
C          2.36490        0.01500        1.36600
C          3.73130       -0.32020        1.43970
C          4.47840       -0.39410        0.26050
C          3.87970       -0.11790       -0.97220
C          2.51120        0.21440       -1.01090
N          1.94600        0.56330       -2.30820
O          1.17860        1.53290       -2.35270
O          2.32030       -0.10470       -3.27930
N          5.90750       -0.73460        0.31990
O          6.52930       -0.77150       -0.74870
O          6.39480       -0.95460        1.43520
N          1.64230        0.14950        2.62460
O          1.90260       -0.67400        3.50980
O          0.86520        1.10590        2.73550
C         -1.70720       -0.25760       -0.10880
C         -2.36500       -0.01480       -1.33010
C         -3.73130        0.32030       -1.40370
C         -4.47840        0.39410       -0.22450
C         -3.87970        0.11770        1.00820
C         -2.51120       -0.21460        1.04670
N         -1.94590       -0.56360        2.34400
O         -1.17830       -1.53300        2.38830
O         -2.32030        0.10420        3.31520
N         -5.90750        0.73460       -0.28380
O         -6.39490        0.95480       -1.39900
O         -6.52930        0.77120        0.78480
N         -1.64240       -0.14920       -2.58880
O         -0.86540       -1.10560       -2.69990
O         -1.90260        0.67460       -3.47370
H          4.19710       -0.50880        2.40820
H          4.46190       -0.14780       -1.89460
H         -4.19720        0.50900       -2.37220
H         -4.46180        0.14750        1.93050
