51
7.668
N          0.08710        0.98300        0.09130
C          1.13980        1.51670        0.76760
C          1.27190        2.88800        0.94350
C          0.33290        3.75710        0.37700
C         -0.73260        3.19740       -0.33660
C         -0.84440        1.81740       -0.44410
N         -1.90520        1.16380       -1.09810
N         -2.71440        0.72530       -0.25100
C         -3.76380        0.04600       -0.89930
C         -3.70260       -1.33910       -1.12360
C         -4.70380       -2.05170       -1.80450
C         -5.82600       -1.35670       -2.26460
C         -5.94820        0.02050       -2.04140
C         -4.92100        0.70120       -1.35720
N         -5.09540        2.13210       -1.12390
O         -5.65700        2.77850       -2.01660
O         -4.71130        2.59160       -0.04090
N         -6.89240       -2.07990       -2.97260
O         -7.88000       -1.42880       -3.33390
O         -6.73430       -3.29320       -3.15400
N         -2.56590       -2.09080       -0.62720
O         -2.36750       -2.06650        0.59290
O         -1.92890       -2.74270       -1.46240
N         -1.71490        4.06510       -0.95070
O         -1.97850        5.11680       -0.35440
O         -2.18520        3.72510       -2.04300
N          2.37900        3.42900        1.70260
O          2.76340        2.79860        2.69500
O          2.83230        4.51730        1.32670
N          2.05890        0.57000        1.25670
N          2.79430        0.17780        0.32410
C          3.69780       -0.79070        0.80260
C          4.94290       -0.45320        1.36270
C          5.82360       -1.42620        1.87660
C          5.45970       -2.77740        1.81880
C          4.24210       -3.15890        1.24780
C          3.39250       -2.16020        0.74320
N          2.15140       -2.58650        0.12550
O          1.98220       -2.28180       -1.06070
O          1.39580       -3.27290        0.82290
N          6.37120       -3.80320        2.34660
O          6.00100       -4.98170        2.28190
O          7.45050       -3.42050        2.81400
N          5.36770        0.94280        1.42060
O          6.01720        1.28750        2.41530
O          5.08900        1.67150        0.45990
H          0.42860        4.83650        0.48820
H         -4.59920       -3.12580       -1.96130
H         -6.82790        0.56460       -2.38880
H          6.77820       -1.12520        2.31090
H          3.94940       -4.20760        1.18600
