22
6.691
C          0.13030       -1.03180        0.61390
C         -1.23810       -1.29290        0.42860
C         -2.04790       -0.29240       -0.12080
C         -1.50450        0.94700       -0.47730
C         -0.13140        1.16840       -0.27600
C          0.72580        0.19350        0.26500
C          2.17090        0.41710        0.39280
C          3.01870        0.11710       -0.59800
N          0.38850        2.47070       -0.65640
O          0.30210        2.77400       -1.85250
O          0.83440        3.18490        0.24930
N         -3.48190       -0.54370       -0.32030
O         -3.91860       -1.65210        0.01330
O         -4.15930        0.37120       -0.80490
N          0.93180       -2.09740        1.19120
O          1.43730       -1.88380        2.29950
O          1.00640       -3.14800        0.54280
H         -1.65090       -2.26220        0.70940
H         -2.12610        1.73320       -0.90660
H          2.53020        0.83910        1.33040
H          4.08510        0.29280       -0.47720
H          2.69720       -0.30470       -1.54630
