23
7.66
C         -0.66670       -0.75930        0.14080
C         -1.08560        0.59400        0.17600
C         -0.15950        1.64860        0.15270
C          1.21680        1.39780        0.08840
C          1.65060        0.06750        0.03940
C          0.73080       -0.99190        0.05920
N          1.23210       -2.35520        0.04050
O          1.87450       -2.71340        1.03250
O          0.94560       -3.04240       -0.94430
N          3.07860       -0.17330       -0.07320
O          3.80290        0.39810        0.74810
O          3.45100       -0.88760       -1.00810
N         -0.59210        3.03490        0.19930
O         -1.35480        3.35190        1.11580
O         -0.12370        3.78980       -0.65890
N         -2.50020        0.91340        0.16860
O         -3.12520        0.70590        1.21260
O         -2.95350        1.34710       -0.89490
C         -1.64780       -1.90800        0.11740
H          1.93390        2.21980        0.06700
H         -2.62520       -1.64500        0.52740
H         -1.79240       -2.25000       -0.91230
H         -1.29030       -2.74270        0.72930
