18
8.348
N          1.03710        0.99130       -0.00080
C         -0.30570        1.32770       -0.04250
C         -1.34670        0.38540       -0.04300
C         -1.01390       -0.96920        0.00080
C          0.32430       -1.36260        0.04380
C          1.31260       -0.36520        0.04160
N          2.69060       -0.74730        0.08530
O          3.23270       -0.98120       -1.00070
O          3.17880       -0.92300        1.20730
N         -2.07670       -1.98510        0.00170
O         -1.72710       -3.17000        0.04150
O         -3.24460       -1.58250       -0.03740
N         -0.62540        2.72150       -0.08700
O         -0.77980        3.21620       -1.20930
O         -0.83370        3.27450        0.99870
O          1.94830        1.86240       -0.00160
H         -2.38330        0.72050       -0.07710
H          0.61240       -2.41330        0.07860
