23
7.682
C          1.19340        0.70630       -0.44010
C          0.10090        1.58860       -0.35760
C         -1.16040        1.11980        0.05080
C         -1.35080       -0.22240        0.38140
C         -0.27760       -1.11160        0.29590
C          0.97970       -0.65380       -0.12000
N          2.09700       -1.57940       -0.16810
O          2.47480       -2.03580        0.91500
O          2.58600       -1.80830       -1.27810
N         -0.45650       -2.49890        0.65370
O         -0.76730       -2.72750        1.82520
O         -0.27980       -3.32650       -0.24340
N         -2.64480       -0.68330        0.82380
O         -3.08300       -0.17670        1.85990
O         -3.18920       -1.54490        0.12890
N         -2.26310        2.06460        0.06050
O         -3.26960        1.74670       -0.57960
O         -2.08200        3.12630        0.66510
C          2.53320        1.23640       -0.88080
H          0.23070        2.64200       -0.61610
H          2.75830        0.89780       -1.89670
H          2.54590        2.33170       -0.88090
H          3.32420        0.90870       -0.19880
