11
6.919
C          0.99070        0.57790       -0.59320
N         -0.11840       -0.04090        0.09290
C         -0.73880        0.50840        1.17820
O         -0.43050        1.58060        1.69260
N         -0.54850       -1.27820       -0.42220
O          0.07040       -1.69530       -1.40230
O         -1.49410       -1.80840        0.16080
H          1.86890       -0.07420       -0.54610
H          0.71950        0.77860       -1.63480
H          1.25170        1.53060       -0.12250
H         -1.57090       -0.07910        1.59650
