34
7.124
N          0.18070       -0.08670        0.73660
N         -0.08470       -1.08120        1.63530
O         -0.64600       -0.73330        2.67430
O          0.26820       -2.22280        1.33480
C         -0.94520        0.82210        0.46070
N         -1.81950        0.44250       -0.65910
C         -2.61270       -0.75420       -0.39430
O         -3.40020       -0.60910        0.78210
C         -4.13860       -1.78890        1.07570
N         -2.58970        1.47380       -1.15810
O         -2.34460        2.61320       -0.75390
O         -3.41190        1.16990       -2.02570
C          0.99950       -0.45570       -0.42440
N          1.58020        0.71090       -1.10420
N          2.06820        0.45820       -2.36710
O          2.72330        1.36170       -2.89260
O          1.74740       -0.61040       -2.89280
C          2.54040        1.42160       -0.26240
O          3.63920        0.59130        0.10640
C          4.62900        1.31490        0.82740
H         -1.53360        1.04760        1.36170
H         -0.45430        1.77860        0.23510
H         -1.94650       -1.61590       -0.27350
H         -3.25840       -1.02670       -1.23990
H         -4.82710       -2.02320        0.25820
H         -3.46120       -2.62980        1.25260
H         -4.72090       -1.61260        1.98390
H          0.35990       -1.03790       -1.10150
H          1.82000       -1.12660       -0.13190
H          2.04820        1.76800        0.65530
H          2.90570        2.33730       -0.74690
H          5.43130        0.62330        1.09780
H          5.04930        2.11130        0.20580
H          4.20470        1.73480        1.74440
