19
7.258
N          1.83420       -1.54000        0.27230
N          2.73830       -1.27880       -0.69550
O          3.88430       -1.59950       -0.39190
O          2.32550       -0.78960       -1.74370
C          0.96930       -0.41680        0.64410
C         -0.21120       -0.18220       -0.33330
N         -1.29530        0.63630        0.24340
N         -1.04410        1.99620        0.34260
O          0.13560        2.35140        0.32050
O         -2.02500        2.72990        0.48320
C         -2.58000        0.32100       -0.38490
H          2.44180       -1.78760        1.04730
H          0.54520       -0.66430        1.62600
H          1.57100        0.48660        0.79190
H          0.12660        0.24860       -1.28370
H         -0.61050       -1.17690       -0.57560
H         -3.42200        0.76990        0.15530
H         -2.61420        0.65480       -1.42870
H         -2.76930       -0.75890       -0.36620
