20
8.131
N         -0.06320        1.52130       -0.59120
C          1.30580        1.49570       -0.32700
O          1.98360        2.50480       -0.36870
N          1.64900        0.18860       -0.07410
C          0.56710       -0.72190       -0.21900
C         -0.59560        0.18960       -0.70710
N         -1.64510       -0.11510        0.20190
C         -1.27930       -1.00100        1.18780
O         -1.93120       -1.52710        2.06960
N          0.07630       -1.27840        1.01380
N         -2.93140        0.29200       -0.06930
O         -3.04420        0.99610       -1.07580
O         -3.81230       -0.08580        0.69610
N          2.93180       -0.28490        0.08170
O          3.01660       -1.51160        0.17890
O          3.83680        0.54280        0.09910
H         -0.49910        2.36490       -0.94850
H          0.76970       -1.52310       -0.93940
H         -0.85260       -0.02350       -1.75130
H          0.51740       -2.02330        1.54260
