34
7.396
C          3.60490        0.22900        1.28060
C          4.08340        0.18960       -0.03510
C          3.22280       -0.04720       -1.11500
C          1.83750       -0.22550       -0.90790
C          1.35450       -0.12060        0.41700
C          2.23050        0.05240        1.49140
N          1.54640       -0.00610        2.66700
N          0.27150       -0.21120        2.38910
N          0.11600       -0.18110        1.04670
C         -1.20400       -0.07450        0.55170
C         -1.61420        0.99800       -0.25990
C         -2.93840        1.11450       -0.71470
C         -3.87810        0.14900       -0.32940
C         -3.50850       -0.92060        0.49640
C         -2.17490       -1.02130        0.92940
N         -1.81240       -2.22320        1.67620
O         -0.83090       -2.85670        1.26780
O         -2.54100       -2.53500        2.62420
N         -5.26790        0.26230       -0.79440
O         -5.58530        1.29960       -1.38920
O         -6.02760       -0.68440       -0.55710
N         -0.71030        2.08510       -0.59670
O         -0.57280        2.34560       -1.79500
O         -0.11940        2.63440        0.33740
N          1.01740       -0.58400       -2.07040
O         -0.09310       -1.07840       -1.83980
O          1.47770       -0.36960       -3.19600
N          5.52240        0.36740       -0.27790
O          5.92710        0.22750       -1.43910
O          6.23820        0.64400        0.69300
H          4.26120        0.37660        2.13450
H          3.63240       -0.11160       -2.12540
H         -3.22890        1.95560       -1.34610
H         -4.23650       -1.67980        0.78660
