19
7.987
C          1.17820       -0.59840       -0.29360
N          2.34870       -1.14100       -0.16580
N          3.41640       -0.32870       -0.06500
O          4.45630       -0.67930       -0.63780
O          3.34770        0.71610        0.60680
N          0.10450       -1.42910       -0.43750
C         -1.26350       -1.00590       -0.22870
N         -1.61470        0.35920       -0.56380
C         -0.51940        1.18910       -0.10400
N          0.83590        0.72520       -0.33580
N         -2.85340        0.75560       -0.17030
O         -3.71330       -0.12360       -0.08310
O         -3.00740        1.95960        0.04410
H          0.29570       -2.41740       -0.31320
H         -1.48790       -1.20500        0.82940
H         -1.89000       -1.69420       -0.81010
H         -0.58810        2.17650       -0.57790
H         -0.60490        1.36090        0.97900
H          1.55910        1.38030       -0.03720
