20
7.32
N         -1.74410        0.46840       -0.25470
N         -3.10440        0.45310        0.14940
O         -3.52860       -0.57140        0.67650
O         -3.73630        1.48490       -0.09340
C         -1.33720        1.69820       -0.91460
C         -0.96390       -0.64970       -0.05480
O         -1.20540       -1.68140        0.56150
C          0.40840       -0.61990       -0.72020
O          0.44030       -0.54390       -1.94670
N          1.51570       -0.79850        0.07860
N          1.53580       -0.31950        1.40490
O          0.59360        0.40180        1.73130
O          2.53740       -0.60630        2.06030
C          2.81470       -1.12950       -0.46030
H         -1.82440        1.76350       -1.89270
H         -1.59420        2.56680       -0.29850
H         -0.25590        1.73540       -1.06490
H          3.46070       -0.24550       -0.44000
H          3.26570       -1.94790        0.10990
H          2.72210       -1.45850       -1.50010
