42
7.461
N         -1.05520       -1.95080       -0.64650
C         -0.34000       -2.71950        0.26760
O         -0.65830       -3.80170        0.72040
N          0.81780       -2.01110        0.54810
C          0.96360       -0.80280       -0.24470
C         -0.55130       -0.57680       -0.77270
N         -0.31990       -0.13520       -2.13690
C          0.94990       -0.43380       -2.60630
O          1.36860       -0.25880       -3.73400
N          1.64000       -0.99110       -1.53430
N          3.00630       -1.25340       -1.59800
O          3.53480       -1.22280       -2.70110
O          3.51510       -1.54900       -0.52600
N         -1.17730        0.74840       -2.80820
O         -0.79530        1.16520       -3.89470
O         -2.21640        1.02590       -2.22160
C         -1.25660        0.43290        0.17220
O         -1.07270        1.64160        0.11590
O         -1.98930       -0.20440        1.12250
C         -2.63700        0.66750        2.06360
C         -3.42330       -0.19240        3.03280
C          1.42550        0.47090        0.51940
O          1.05350        0.73840        1.65470
O          2.20250        1.26580       -0.26170
C          2.73890        2.44730        0.36290
C          1.77450        3.60700        0.21110
N          1.60540       -2.28070        1.67720
O          2.52340       -1.49510        1.88180
O          1.28650       -3.25310        2.35010
N         -2.36540       -2.26880       -0.99760
O         -2.95280       -1.38880       -1.61040
O         -2.76600       -3.39090       -0.71930
H         -1.88230        1.24660        2.60710
H         -3.31360        1.34530        1.53160
H         -4.16460       -0.79570        2.49840
H         -3.93770        0.42520        3.77420
H         -2.75990       -0.89140        3.55290
H          3.67700        2.67790       -0.15220
H          2.98390        2.26270        1.41510
H          0.84990        3.42160        0.76550
H          1.49750        3.74520       -0.83900
H          2.22030        4.53270        0.58580
