36
7.473
C         -0.86060       -0.20900       -0.04920
C          0.51670       -0.85450       -0.37390
N          1.62150       -0.41270        0.51000
N          1.41760       -0.81650        1.81500
O          0.66040       -0.09440        2.46370
O          1.99770       -1.83360        2.19510
C          2.91400       -0.84120       -0.06630
C          4.13000       -0.17500        0.62030
N          5.36250       -0.53580       -0.07560
N          6.47030        0.09820        0.36210
O          6.62840        0.20460        1.57570
O          7.18760        0.50380       -0.54900
N         -1.84570       -0.36680       -1.13420
N         -2.42360       -1.61660       -1.27200
O         -3.45550       -1.67200       -1.94360
O         -1.84810       -2.56020       -0.73030
C         -2.78080        0.76780       -1.22810
C         -3.78340        0.89100       -0.05850
N         -4.67540        2.02410       -0.28690
N         -5.62830        2.19650        0.65320
O         -5.29070        2.09920        1.83070
O         -6.73730        2.43780        0.18420
H         -0.67160        0.86200        0.10630
H         -1.26900       -0.59270        0.89410
H          0.76210       -0.56050       -1.40370
H          0.45430       -1.94910       -0.36640
H          2.94170       -0.53320       -1.12100
H          3.02120       -1.93490       -0.06440
H          4.18370       -0.49260        1.66790
H          3.99290        0.91440        0.60500
H          5.34820       -0.28560       -1.05770
H         -2.19840        1.69740       -1.29780
H         -3.32570        0.72630       -2.18170
H         -3.22050        1.02930        0.87280
H         -4.36860       -0.03170        0.03610
H         -5.22730        1.91610       -1.13190
