48
7.139
C         -0.93750       -0.12110        1.05340
C          0.42750       -0.28520        1.31390
C          1.34880       -0.14090        0.28050
C          0.93750        0.12100       -1.02930
C         -0.42750        0.28510       -1.28970
C         -1.34880        0.14090       -0.25640
N         -2.56170        0.35580       -0.88330
N         -2.37080        0.67920       -2.18180
N         -1.07600        0.59430       -2.44750
C         -3.87900        0.26360       -0.37740
C         -4.81900        1.27270       -0.66440
C         -6.15060        1.19750       -0.21840
C         -6.55500        0.08720        0.53060
C         -5.64970       -0.93950        0.82670
C         -4.32480       -0.84600        0.36040
N         -3.49790       -2.02800        0.55130
O         -3.36770       -2.42980        1.71180
O         -3.00500       -2.53500       -0.46060
N         -7.94230       -0.00430        1.00770
O         -8.66940        0.98140        0.83700
O         -8.28800       -1.06040        1.55090
N         -4.42220        2.52380       -1.30020
O         -5.07710        2.88370       -2.28410
O         -3.50870        3.15140       -0.75140
N          2.56170       -0.35580        0.90750
N          2.37080       -0.67910        2.20600
N          1.07600       -0.59430        2.47170
C          3.87900       -0.26360        0.40160
C          4.81900       -1.27270        0.68860
C          6.15060       -1.19750        0.24270
C          6.55500       -0.08720       -0.50650
C          5.64970        0.93950       -0.80260
C          4.32470        0.84600       -0.33630
N          3.49790        2.02800       -0.52710
O          3.36790        2.43000       -1.68760
O          3.00480        2.53480        0.48480
N          7.94230        0.00430       -0.98360
O          8.28790        1.06010       -1.52730
O          8.66960       -0.98120       -0.81220
N          4.42230       -2.52370        1.32460
O          3.50870       -3.15140        0.77570
O          5.07710       -2.88350        2.30840
H         -1.63830       -0.20570        1.87830
H          1.63830        0.20560       -1.85420
H         -6.84730        2.00750       -0.44080
H         -5.97050       -1.81980        1.38700
H          6.84730       -2.00750        0.46510
H          5.97040        1.81980       -1.36290
