46
7.431
O         -1.26110        0.25410       -2.23470
C         -0.76670        0.26370       -1.10790
N         -1.44490        0.66920        0.02460
N         -0.82480        0.78420        1.28890
O         -1.59110        0.96620        2.23600
O          0.40210        0.71640        1.31030
C         -2.85280        1.04230       -0.02520
C         -3.77250       -0.15390        0.26980
C         -5.26710        0.20530        0.41190
N         -6.11460       -1.03940        0.55660
O         -5.53140       -2.12100        0.71820
O         -7.34630       -0.90060        0.57580
N         -5.74690        0.81850       -0.87650
O         -5.68240        0.12670       -1.90200
O         -6.08030        2.01150       -0.85660
C         -5.56280        1.10020        1.61950
C          0.63020       -0.31910       -0.99350
O          0.70410       -1.47050       -0.56110
N          1.72270        0.39480       -1.44770
N          1.68520        1.79590       -1.64000
O          2.73280        2.30300       -2.03700
O          0.63330        2.36290       -1.35380
C          3.04290       -0.22000       -1.48700
C          3.77930       -0.10520       -0.14100
C          5.07990       -0.93150       -0.04770
N          6.03090       -0.46430       -1.11740
O          6.40100        0.71720       -1.08280
O          6.30500       -1.25670       -2.02950
N          5.81850       -0.64430        1.24090
O          6.93220       -1.16650        1.39640
O          5.24320        0.04030        2.09870
C          4.84460       -2.44400       -0.10990
H         -3.03830        1.89200        0.64000
H         -3.06650        1.41310       -1.03490
H         -3.62250       -0.89760       -0.52610
H         -3.43690       -0.64570        1.19290
H         -5.25350        0.61050        2.55060
H         -6.63070        1.33180        1.71650
H         -5.03840        2.05970        1.56370
H          2.89020       -1.27790       -1.72750
H          3.63410        0.18270       -2.31700
H          3.97970        0.95810        0.05100
H          3.09900       -0.42390        0.66090
H          4.19000       -2.76890        0.70760
H          4.37500       -2.75330       -1.04930
H          5.77680       -3.01600       -0.02310
