28
8.641
C         -1.04430        0.71940        1.05310
N         -1.38390       -0.70100        1.06470
C         -0.65560       -1.55440        0.12090
N          0.80980       -1.51380        0.30280
C          1.49380       -0.59120       -0.63300
N          1.60610        0.75780       -0.05910
C          0.56450        1.69330       -0.51760
N         -0.79730        1.21390       -0.30100
N         -1.79050        2.01380       -0.81590
O         -1.43870        2.93300       -1.55560
O         -2.94280        1.69700       -0.52530
N          2.83440        1.35340       -0.23300
O          3.50820        0.99990       -1.20100
O          3.10230        2.22700        0.59140
N          1.30300       -2.78920        0.16730
O          1.39990       -3.22870       -0.98070
O          1.56500       -3.35610        1.22570
N         -2.73320       -0.94690        1.16420
O         -3.21150       -1.78100        0.39320
O         -3.32440       -0.33310        2.05370
H         -1.75320        1.35710        1.60210
H         -0.14970        0.82530        1.68220
H         -0.94220       -1.36240       -0.92360
H         -0.98630       -2.58650        0.31890
H          2.50890       -0.99350       -0.76770
H          1.05350       -0.58910       -1.64080
H          0.72790        1.88040       -1.58950
H          0.67640        2.65550        0.00380
