48
7.842
N         -0.35160        1.07930        0.86890
N         -0.24170        2.12120        1.77200
O          0.52020        3.04000        1.46530
O         -0.92280        2.04230        2.79580
C         -0.91600       -0.18190        1.37120
C         -2.44910       -0.18570        1.40940
C         -3.04330       -0.24280        0.02520
O         -2.45190       -0.56260       -0.99470
O         -4.36860        0.08110        0.06740
C         -5.04530        0.01670       -1.21130
C         -6.54240        0.26220       -1.08700
N         -7.14570        0.41900       -2.43290
O         -6.69410       -0.30480       -3.33580
O         -8.05500        1.24300       -2.60840
N         -6.79270        1.49940       -0.31880
O         -7.51160        1.46160        0.69000
O         -6.20200        2.52460       -0.70030
N         -7.25510       -0.87040       -0.45120
O         -8.47230       -1.00620       -0.64850
O         -6.58840       -1.65720        0.24070
C          0.78200        0.89380       -0.05030
C          2.06080        0.37460        0.61570
C          3.16510        0.22430       -0.39890
O          3.06340        0.39790       -1.60270
O          4.31940       -0.15810        0.22180
C          5.44190       -0.36800       -0.66970
C          6.64900       -0.95330        0.04910
N          6.95880       -0.15570        1.25390
O          7.00680       -0.70980        2.36170
O          7.09210        1.06990        1.09570
N          7.83440       -0.93220       -0.84190
O          8.95440       -0.68730       -0.37070
O          7.63410       -1.16910       -2.04460
N          6.45050       -2.37120        0.43170
O          5.28360       -2.78710        0.52170
O          7.44240       -3.09010        0.62620
H         -0.51650       -0.41540        2.36730
H         -0.59910       -1.02100        0.73690
H         -2.84090        0.69370        1.92940
H         -2.79130       -1.07790        1.94610
H         -4.84760       -0.96730       -1.65970
H         -4.58200        0.77330       -1.86050
H          0.99130        1.82770       -0.59020
H          0.47930        0.19760       -0.84500
H          2.40390        1.07200        1.38710
H          1.88570       -0.60570        1.07180
H          5.68890        0.60790       -1.11130
H          5.11930       -1.02770       -1.48780
