32
7.825
N          0.11830        0.77340       -0.33730
N          0.34040        1.68470       -1.35840
O         -0.65310        1.99110       -2.01560
O          1.48680        2.10670       -1.49020
C         -1.06830        1.12910        0.49610
C         -2.32900        0.21940        0.47880
N         -2.60060       -0.28770       -0.90820
O         -1.76900       -1.05400       -1.41710
O         -3.61200        0.13110       -1.48880
N         -2.15620       -1.00370        1.33570
O         -2.96960       -1.92910        1.20950
O         -1.28020       -0.95920        2.21170
C         -3.54550        0.96670        1.04800
C          1.30410        0.33740        0.44880
C          2.26890       -0.72400       -0.17430
N          3.28770       -1.14020        0.86750
O          3.42070       -0.41320        1.86340
O          3.98460       -2.13940        0.64090
C          3.05260       -0.29690       -1.41500
N          1.49360       -1.99180       -0.42530
O          0.77580       -2.41260        0.49280
O          1.57660       -2.51750       -1.54350
H         -1.41000        2.13730        0.21280
H         -0.74620        1.30470        1.53320
H         -3.36600        1.27570        2.08500
H         -3.76620        1.87270        0.47120
H         -4.45270        0.34970        1.04680
H          1.87320        1.22740        0.75670
H          0.93900       -0.07630        1.39770
H          3.63270        0.61200       -1.21840
H          2.39720       -0.11370       -2.27280
H          3.77250       -1.05990       -1.73810
