37
8.127
O          1.97150       -0.04040       -0.31860
C          3.11290        0.28290        0.51380
C          4.43850        0.14340       -0.22350
N          4.79510       -1.27200       -0.47540
O          5.99020       -1.60250       -0.50010
O          3.86470       -2.07710       -0.64060
N          4.39480        0.86780       -1.51130
O          3.92760        2.01960       -1.49140
O          4.77220        0.30320       -2.54820
N          5.53410        0.72370        0.59040
O          6.44350        1.35680        0.03470
O          5.47310        0.54700        1.81830
C          0.76870        0.04240        0.32250
O          0.63280        0.43410        1.47320
C         -0.36620       -0.36790       -0.61180
N         -1.55540       -0.76540        0.16620
N         -1.43130       -1.94180        0.88580
O         -0.31850       -2.46690        0.91890
O         -2.46290       -2.34930        1.42020
C         -2.82750       -0.60640       -0.57720
C         -3.83270        0.40320        0.03820
C         -4.28690        0.07430        1.45980
N         -3.23640        1.78230       -0.05510
O         -3.17700        2.47040        0.97240
O         -2.77770        2.13280       -1.15390
N         -5.06060        0.50800       -0.83420
O         -5.93160        1.32960       -0.51530
O         -5.15320       -0.26280       -1.80070
H          2.97840        1.31530        0.86720
H          3.08740       -0.37450        1.39460
H         -0.04190       -1.17330       -1.28150
H         -0.57310        0.51960       -1.22050
H         -3.31960       -1.58420       -0.69220
H         -2.60100       -0.32870       -1.61780
H         -5.01190        0.79980        1.84960
H         -3.44650        0.06420        2.16280
H         -4.77350       -0.90720        1.49680
