36
8.073
N         -1.30010       -0.05680       -1.66830
C         -0.35390        0.61380       -2.43710
O         -0.53320        1.14780       -3.51430
N          0.84010        0.53910       -1.73710
C          0.75670       -0.26710       -0.53140
C         -0.84780       -0.34180       -0.30110
N         -1.01720       -1.72190        0.11990
C          0.06700       -2.53040       -0.18340
O          0.14630       -3.73230       -0.01930
N          1.03790       -1.69470       -0.72630
N          2.33320       -2.14430       -0.97290
O          3.13660       -1.25850       -1.22750
O          2.51910       -3.35380       -0.97080
N         -2.03240       -2.13170        0.99740
O         -1.98710       -3.29190        1.38690
O         -2.85200       -1.27160        1.29700
C         -1.24810        0.74680        0.73260
O         -1.06560        0.62180        1.93720
O         -1.70310        1.87230        0.12190
C         -2.05480        2.93050        1.02170
C          1.40980        0.33330        0.74410
O          1.38760        1.52980        1.00450
O          1.88780       -0.63840        1.56510
C          2.47100       -0.15020        2.77960
N          1.92140        1.39010       -2.01130
O          2.85970        1.32330       -1.22630
O          1.81180        2.12080       -2.98800
N         -2.65670       -0.01720       -1.98240
O         -3.39210       -0.44800       -1.10560
O         -2.96470        0.37690       -3.09910
H         -1.17010        3.27460        1.56600
H         -2.83490        2.59990        1.71440
H         -2.44500        3.76180        0.42840
H          2.85720       -1.00800        3.33670
H          1.71260        0.35000        3.38950
H          3.30280        0.52600        2.55940
