40
8.422
N         -1.05100       -1.54070        0.57120
C          0.19780       -0.97570        0.52000
O          0.42290        0.10600        1.06860
N          1.19230       -1.59290       -0.18160
C          2.55730       -1.10090       -0.19110
C          2.70590        0.11830       -1.11060
C          4.14260        0.63580       -1.28220
N          5.04750       -0.35570       -1.92660
O          6.27260       -0.27400       -1.75970
O          4.51460       -1.22330       -2.63780
N          4.69010        1.04350        0.03640
O          5.18120        0.16100        0.75860
O          4.49690        2.20710        0.41900
N          4.21190        1.81710       -2.19250
O          5.30490        2.37320       -2.37830
O          3.16240        2.17350       -2.75220
C         -2.14310       -0.86870        1.27950
C         -2.92700        0.08440        0.35760
C         -4.03520        0.91680        1.03360
N         -5.07890        0.01570        1.58670
O         -6.07400       -0.23650        0.89240
O         -4.82960       -0.56480        2.65520
N         -4.70480        1.84300        0.07120
O         -5.54450        2.65020        0.49650
O         -4.37120        1.76720       -1.12240
N         -3.52140        1.82070        2.09720
O         -2.37480        2.26680        1.93950
O         -4.23720        2.10450        3.06740
N         -1.41380       -2.74410       -0.08840
O         -2.61640       -3.01150       -0.07510
O         -0.50400       -3.38990       -0.60910
H          1.03140       -2.55100       -0.49230
H          3.18580       -1.93400       -0.51780
H          2.82500       -0.85490        0.84130
H          2.26910       -0.13710       -2.08720
H          2.07400        0.92770       -0.71880
H         -2.78490       -1.61570        1.75680
H         -1.70490       -0.29970        2.10730
H         -3.36580       -0.51130       -0.45530
H         -2.20360        0.75020       -0.13540
