25
7.617
N         -3.35060       -0.34830       -0.91370
N         -4.19400       -1.15320       -0.18430
N         -3.56560       -2.24080        0.24030
N         -2.31900       -2.12910       -0.23690
C         -2.18260       -0.94690       -0.91390
N         -1.01760       -0.54240       -1.50320
C          0.01090        0.00200       -0.66490
C          1.04330       -0.80570       -0.14210
C          2.02460       -0.32450        0.74070
C          1.97530        1.01430        1.13870
C          0.97510        1.86380        0.65350
C          0.01170        1.35410       -0.23920
N         -0.96740        2.30120       -0.77250
O         -1.27690        2.16760       -1.96470
O         -1.38130        3.18170       -0.01000
N          2.99140        1.53580        2.06340
O          3.75160        0.71560        2.59230
O          3.01950        2.75800        2.24930
N          1.16250       -2.19280       -0.54780
O          2.14670       -2.49090       -1.23220
O          0.28830       -2.97230       -0.14260
H         -1.63610       -2.86200       -0.07470
H         -1.26440        0.19200       -2.18910
H          2.81030       -0.98990        1.10050
H          0.94420        2.91270        0.95300
