30
8.419
C          0.60280        0.66130        1.03490
C          0.91040       -0.84160        0.74940
C         -0.34460       -0.90790       -0.16610
C         -0.49120        0.63640       -0.08090
N         -1.79700        0.86810        0.54590
C         -2.51930       -0.39080        0.47480
N         -1.48860       -1.40590        0.61270
N         -1.88440       -2.68440        0.32620
O         -3.07850       -2.93720        0.49280
O         -1.00440       -3.46090       -0.04040
N         -2.49180        1.96200        0.10500
O         -3.70930        1.94100        0.29260
O         -1.83690        2.85890       -0.42630
N          2.17810       -0.80430        0.01030
C          2.45320        0.54980       -0.41470
N          1.81290        1.36170        0.59810
N          1.70100        2.69910        0.37870
O          2.40250        3.16870       -0.51810
O          0.92920        3.30480        1.12260
N          2.48380       -1.83190       -0.81800
O          2.04530       -2.93520       -0.49980
O          3.17720       -1.55760       -1.79820
H          0.27380        0.86740        2.06000
H          0.91810       -1.49560        1.62810
H         -0.23910       -1.28680       -1.18880
H         -0.27860        1.13100       -1.03560
H         -3.25470       -0.46210        1.28550
H         -3.03640       -0.49190       -0.49180
H          2.03350        0.74430       -1.41180
H          3.53290        0.73980       -0.44290
