41
8.434
O          3.05070       -1.82420        0.10280
C          1.98500       -1.22810        0.07120
N          0.80840       -1.59540       -0.53290
C         -0.39820       -0.78160       -0.57970
N         -1.52460       -1.37490        0.14390
N         -1.48830       -1.40050        1.51050
O         -2.53470       -1.71530        2.07500
O         -0.42220       -1.10000        2.04380
C         -2.84260       -1.35120       -0.53470
C         -3.70410       -0.05580       -0.56050
C         -4.06630        0.53400        0.80370
N         -2.98860        0.94940       -1.41710
O         -2.87220        0.70900       -2.62620
O         -2.42070        1.88790       -0.84130
N         -5.00000       -0.29860       -1.30360
O         -5.76150        0.66670       -1.46180
O         -5.25400       -1.45490       -1.66710
N          0.76380       -2.77950       -1.31080
O          1.74650       -3.51320       -1.28910
O         -0.28840       -2.96120       -1.92870
O          1.88410       -0.00180        0.68270
C          3.03630        0.45560        1.44700
C          3.83320        1.55590        0.75860
N          4.42850        1.04540       -0.49520
O          5.63250        0.75210       -0.51170
O          3.66030        0.83770       -1.45130
N          2.99080        2.74170        0.46670
O          2.06580        2.98530        1.25960
O          3.24070        3.44740       -0.52140
N          4.92110        2.07170        1.62760
O          5.53430        3.09390        1.28560
O          5.15040        1.46000        2.68330
H         -0.63270       -0.61770       -1.63970
H         -0.20620        0.22740       -0.19620
H         -3.44750       -2.16260       -0.10270
H         -2.67600       -1.69750       -1.56550
H         -3.17950        0.80110        1.38790
H         -4.66110        1.45210        0.71630
H         -4.66020       -0.17510        1.39170
H          3.67780       -0.39230        1.72140
H          2.61940        0.80690        2.40050
