56
8.355
O         -4.72620        0.30820        0.90150
C         -4.34460        0.47450       -0.25230
O         -5.23630        0.51640       -1.26710
C         -6.68660        0.39240       -1.11650
C         -7.39360        0.09500        0.21570
N         -7.36740        1.23350        1.16850
O         -6.71250        2.23930        0.84280
O         -8.05360        1.18020        2.20050
N         -6.93210       -1.16350        0.85040
O         -6.38310       -1.99640        0.10510
O         -7.11190       -1.35590        2.06090
N         -8.84290       -0.08590       -0.10570
O         -9.36920       -1.20000        0.02650
O         -9.43800        0.89130       -0.59090
N         -3.01830        0.62990       -0.57730
C         -1.98840        0.61740        0.45630
C         -1.46510       -0.80670        0.74870
N         -0.19340       -0.86220        1.48760
N         -0.23040       -0.37470        2.77990
O          0.82550        0.05700        3.24040
O         -1.32100       -0.41710        3.34930
C          0.96860       -0.48910        0.66500
C          2.25360       -1.27050        1.02130
N          3.29400       -1.10950        0.00890
C          4.18030       -0.06020        0.07100
O          4.15710        0.77360        0.97250
O          5.11030        0.02390       -0.92240
C          6.08200        1.10110       -0.86190
C          7.47000        0.64560       -0.43230
N          7.43570        0.15260        0.96320
O          7.88100        0.87640        1.86620
O          6.85510       -0.92450        1.18230
N          8.01510       -0.39420       -1.33590
O          7.78530       -0.25680       -2.54900
O          8.69950       -1.31780       -0.87170
N          8.45450        1.75700       -0.50830
O          9.66360        1.50040       -0.40270
O          8.01290        2.90310       -0.69270
N          3.24460       -2.03040       -1.06460
O          2.27480       -2.79150       -1.05960
O          4.14720       -1.98290       -1.89580
N         -2.53230        0.63290       -1.90890
O         -1.30300        0.65800       -2.01560
O         -3.35470        0.59570       -2.81910
H         -7.07700        1.32240       -1.55220
H         -6.95610       -0.38350       -1.84720
H         -2.42290        1.03140        1.37480
H         -1.18120        1.31070        0.19060
H         -2.24270       -1.37400        1.27910
H         -1.34460       -1.36330       -0.19020
H          0.74530       -0.70150       -0.38840
H          1.15540        0.59280        0.70200
H          2.66200       -0.90520        1.97000
H          2.04310       -2.33380        1.19210
H          5.71260        1.91410       -0.22300
H          6.09990        1.52460       -1.87490
