34
8.084
N         -2.71440       -0.70770        0.74930
N         -1.94220       -0.47960        1.87970
O         -2.47150       -0.72180        2.96460
O         -0.80600       -0.02910        1.69910
C         -1.99790       -0.66910       -0.53530
C         -1.72190        0.77200       -1.02000
N         -0.79990        0.80640       -2.15380
C          0.56780        0.81000       -2.03160
O          1.41910        0.85720       -2.90580
O          0.93890        0.73470       -0.71400
C          2.36330        0.71270       -0.45490
C          2.70050        0.38850        0.99620
N          2.10630       -0.89330        1.44510
O          2.02430       -1.14090        2.65700
O          1.72870       -1.68820        0.56480
N          4.17800        0.27710        1.09180
O          4.69610       -0.82720        1.31090
O          4.83610        1.29990        0.83730
N          2.28820        1.45620        1.93900
O          2.82930        1.51960        3.05420
O          1.43690        2.27320        1.55170
N         -1.39620        0.67000       -3.43050
O         -0.65490        0.68490       -4.40820
O         -2.62140        0.52980       -3.42450
C         -3.55770       -1.89990        0.85470
H         -2.60390       -1.14950       -1.31490
H         -1.07390       -1.26150       -0.49050
H         -2.65970        1.29190       -1.25370
H         -1.27520        1.37600       -0.22310
H          2.82540       -0.03080       -1.12040
H          2.76030        1.69650       -0.74140
H         -2.95800       -2.81410        0.93460
H         -4.23550       -1.84960        1.71510
H         -4.20900       -1.99440       -0.02220
