13
8.925
C          0.02110        0.27530        0.16100
N         -1.19650       -0.50630        0.18480
N         -2.31780        0.23610        0.25860
O         -2.34580        1.13750        1.09330
O         -3.18420       -0.10290       -0.54240
N          1.10720       -0.66140       -0.03120
N          2.32850       -0.09640        0.02310
O          2.50440        0.93440       -0.62230
O          3.12200       -0.71030        0.73070
H          0.15660        0.81790        1.10610
H         -0.01720        1.00420       -0.65950
H         -1.32210       -0.99980       -0.69160
H          1.14400       -1.32800        0.73150
