42
7.4
N         -0.45020        0.81900       -0.34370
C         -0.59810       -0.35480        0.32150
C          0.63000       -0.91830        0.54780
N          1.52190       -0.02360        0.00500
N          0.84640        1.02090       -0.52390
C          2.93610       -0.09330       -0.09950
C          3.72040        1.07900       -0.08490
C          5.12160        1.04830       -0.22470
C          5.76500       -0.18300       -0.37710
C          5.02540       -1.37000       -0.39200
C          3.62500       -1.30940       -0.25960
N          2.92950       -2.56800       -0.44200
O          2.23940       -2.67880       -1.45960
O          3.08380       -3.41770        0.44050
N          7.22710       -0.23210       -0.51900
O          7.84690        0.83220       -0.40830
O          7.73960       -1.33660       -0.73780
N          3.15620        2.37930        0.25100
O          2.66930        2.48530        1.38250
O          3.29240        3.27810       -0.58590
N         -1.78810       -0.88640        0.67040
C         -3.07290       -0.32150        0.46150
C         -4.07620       -1.04320       -0.23280
C         -5.31280       -0.47020       -0.58910
C         -5.57240        0.86120       -0.25170
C         -4.62390        1.61100        0.44700
C         -3.39560        1.01530        0.79470
N         -2.51490        1.81320        1.64570
O         -2.09170        1.28080        2.68090
O         -2.32800        2.99030        1.31140
N         -6.86180        1.46800       -0.61300
O         -7.66650        0.76640       -1.23850
O         -7.06230        2.63670       -0.26100
N         -3.85000       -2.43910       -0.61890
O         -4.39080       -2.83920       -1.65690
O         -3.14260       -3.12900        0.13060
H          0.91580       -1.81770        1.07040
H          5.69230        1.97810       -0.18860
H          5.51920       -2.33370       -0.52890
H         -1.81800       -1.89280        0.86620
H         -6.05640       -1.05990       -1.12690
H         -4.83010        2.64230        0.73720
