50
8.513
O         -2.37060        1.59510        0.33070
C         -2.85750        0.47640        0.18360
O         -4.19770        0.25550        0.30080
C         -5.08770        1.39610        0.39370
C         -6.14860        1.40410       -0.70420
N         -7.16360        2.44640       -0.40310
O         -6.74420        3.50990        0.08410
O         -8.36200        2.22550       -0.62830
N         -5.58320        1.74120       -2.03240
O         -4.38990        1.46260       -2.23860
O         -6.29860        2.31000       -2.87080
N         -6.84720        0.10400       -0.78310
O         -7.20150       -0.40580        0.29410
O         -7.04010       -0.42300       -1.88790
N         -2.09130       -0.64810       -0.02460
C         -0.64080       -0.54960       -0.02800
N         -0.14360       -0.06900        1.25670
C          0.74460        1.08970        1.24630
N          2.16060        0.74780        1.23560
C          2.73070        0.10120        0.16410
O          2.10290       -0.17730       -0.85430
O          4.01970       -0.30630        0.33170
C          4.62660       -1.01150       -0.77690
C          6.10350       -1.30290       -0.53360
N          6.31770       -2.33700        0.50440
O          7.38760       -2.96450        0.52130
O          5.38900       -2.55700        1.29860
N          6.71630       -1.83830       -1.77470
O          6.01940       -2.61350       -2.45080
O          7.86460       -1.49830       -2.09320
N          6.81940       -0.06400       -0.16420
O          6.62070        0.92940       -0.88580
O          7.54140       -0.04680        0.84230
N          2.96900        1.54840        2.09470
O          2.36870        2.18390        2.96020
O          4.17780        1.56490        1.86930
N         -0.10140       -0.92950        2.30490
O          0.58310       -0.59000        3.26890
O         -0.76320       -1.96090        2.19350
N         -2.60570       -1.71620       -0.80850
O         -1.81550       -2.62730       -1.05410
O         -3.77140       -1.62000       -1.19140
H         -4.52200        2.33630        0.39860
H         -5.55320        1.32130        1.38540
H         -0.12360       -1.48180       -0.27950
H         -0.40400        0.15890       -0.83240
H          0.55890        1.70990        0.35910
H          0.44820        1.72520        2.08750
H          4.50000       -0.39330       -1.67710
H          4.05790       -1.93880       -0.93240
