47
8.34
O          2.76360       -1.12860       -1.91230
C          2.28080       -0.36110       -1.07530
C          2.97120       -0.21960        0.28050
C          4.42760        0.24500        0.10740
C          5.27540        0.34200        1.39280
N          6.64970        0.86620        1.12480
O          7.43010        1.02660        2.07550
O          6.94300        1.13580       -0.05120
N          5.42510       -1.00890        1.99590
O          6.39130       -1.70510        1.64920
O          4.49530       -1.43890        2.69720
N          4.72450        1.29250        2.39670
O          4.05210        2.23970        1.96060
O          4.96590        1.12920        3.60130
N          1.07160        0.25410       -1.27260
C          0.18000       -0.19490       -2.33540
N         -1.23060       -0.31750       -1.97230
N         -2.12520        0.04700       -3.00310
O         -3.31430        0.10140       -2.70280
O         -1.61840        0.28520       -4.09760
C         -1.60080       -0.96020       -0.81740
O         -0.73250       -1.32550       -0.01160
C         -3.04860       -1.23470       -0.42710
C         -3.68980       -0.00830        0.24580
C         -5.17840       -0.13910        0.63680
N         -6.01740       -0.30760       -0.57920
O         -6.51220        0.70290       -1.10070
O         -6.07110       -1.43600       -1.09440
N         -5.67640        1.07190        1.35960
O         -4.89230        2.02640        1.48690
O         -6.82960        1.07070        1.81600
N         -5.43240       -1.25010        1.59520
O         -4.50870       -1.53510        2.37490
O         -6.53010       -1.82480        1.60250
N          0.93650        1.62980       -0.98490
O          1.93820        2.19810       -0.55760
O         -0.17300        2.11100       -1.21890
H          2.93980       -1.22390        0.71840
H          2.40540        0.41630        0.96500
H          4.92120       -0.44420       -0.59380
H          4.41400        1.21350       -0.41160
H          0.36890        0.46600       -3.19060
H          0.48520       -1.20190       -2.64830
H         -3.60130       -1.62480       -1.28260
H         -3.02610       -2.07210        0.28190
H         -3.08690        0.22220        1.13720
H         -3.56010        0.86960       -0.40040
