78
8.249
C         -0.69080        0.23370        1.30950
N         -0.29540        1.46880        0.67190
C          0.99910        1.46570        0.03290
N          1.39230        0.17760       -0.47940
C          0.30240       -0.73640       -0.72030
N         -0.46190       -0.93110        0.48670
C         -1.05560       -2.11830        0.88460
O         -1.69930       -2.18660        1.93290
C         -0.92380       -3.32920       -0.04600
N         -1.70620       -4.50500        0.37320
C         -3.15190       -4.38750        0.73330
C         -4.25830       -3.83570       -0.19650
N         -4.23020       -4.43440       -1.55150
O         -4.44050       -3.72880       -2.54780
O         -3.98940       -5.64790       -1.61920
N         -5.62530       -4.16220        0.31670
O         -5.72420       -4.54910        1.49140
O         -6.59630       -4.03290       -0.44480
N         -4.18940       -2.35400       -0.28170
O         -4.94720       -1.67320        0.42330
O         -3.29100       -1.85320       -0.97890
N         -1.30530       -5.70200       -0.19610
O         -0.44520       -5.63450       -1.07510
O         -1.85580       -6.71520        0.22990
C          2.69310        0.06290       -0.92280
O          3.48740        1.00120       -0.78710
C          3.21320       -1.23990       -1.54510
N          4.23690       -1.87490       -0.68320
C          5.54470       -1.13930       -0.65460
C          6.88490       -1.89350       -0.43750
N          7.29350       -2.04790        0.97870
O          7.07580       -1.07890        1.72640
O          7.89630       -3.06710        1.34330
N          6.83010       -3.17960       -1.17020
O          7.07000       -3.15520       -2.38910
O          6.37260       -4.17800       -0.59550
N          8.04520       -1.12740       -0.99520
O          7.84020        0.03590       -1.37720
O          9.16070       -1.66960       -1.02890
N          3.75840       -2.35310        0.51670
O          2.55670       -2.61290        0.57400
O          4.59660       -2.50230        1.39870
C         -0.93100        2.62570        1.09310
O         -1.88200        2.59450        1.87980
C         -0.48500        3.99080        0.54700
N         -1.57790        4.65340       -0.20130
C         -2.68660        5.16730        0.66940
C         -3.47580        6.44450        0.27660
N         -4.66250        6.21080       -0.57970
O         -4.97480        7.03910       -1.44710
O         -5.34740        5.20820       -0.31530
N         -2.52880        7.42810       -0.30050
O         -1.86370        8.11720        0.49150
O         -2.30040        7.39930       -1.51880
N         -4.09890        7.10010        1.47110
O         -4.05670        6.49370        2.55320
O         -4.64720        8.20440        1.32950
N         -1.94670        4.01810       -1.36790
O         -3.04280        4.33700       -1.81630
O         -1.13420        3.23800       -1.86380
H         -1.74990        0.26550        1.59060
H         -0.10670        0.12240        2.23180
H          1.73910        1.82120        0.76030
H          1.00080        2.15570       -0.81490
H          0.64370       -1.68650       -1.11690
H         -0.35770       -0.29530       -1.47770
H          0.14410       -3.57890       -0.01300
H         -1.17980       -3.05050       -1.07260
H         -3.47710       -5.38300        1.06930
H         -3.20250       -3.83360        1.67840
H          2.42810       -1.95290       -1.79670
H          3.64630       -0.98000       -2.51990
H          5.61400       -0.68730       -1.65460
H          5.46610       -0.28650        0.03290
H         -0.18580        4.60210        1.40830
H          0.41700        3.94240       -0.06520
H         -3.37430        4.34490        0.90810
H         -2.19010        5.40090        1.62220
