59
8.372
N          0.47560        2.38520        0.81100
O          1.62760        2.75200        1.07260
O         -0.54770        2.86090        1.32170
C          0.29310        1.17640       -0.05790
N          1.30920        1.24440       -1.17120
O          1.88580        0.18880       -1.47170
O          1.44140        2.30540       -1.78800
C          0.53050       -0.08280        0.82890
C          1.86200       -0.15030        1.61070
N          2.15080       -1.50450        2.08950
N          1.49370       -1.87670        3.29390
O          1.70680       -3.00120        3.73460
O          0.74250       -1.01780        3.76200
C          2.92620       -2.42350        1.42630
O          3.20080       -3.57160        1.73620
O          3.42790       -1.90060        0.25980
C          4.23970       -2.77660       -0.57250
C          5.73950       -2.52490       -0.46890
N          6.50080       -3.36500       -1.42950
O          5.87430       -4.24230       -2.04580
O          7.71040       -3.14730       -1.59590
N          6.21600       -2.82620        0.89820
O          6.79420       -3.90270        1.10680
O          5.91710       -2.02490        1.80060
N          6.09240       -1.13170       -0.83380
O          7.05500       -0.57500       -0.28600
O          5.40420       -0.58990       -1.71390
C         -1.12670        1.10530       -0.68560
C         -1.64770        2.24800       -1.59190
N         -2.41030        3.29690       -0.90960
C         -3.68980        3.14540       -0.42810
O         -4.42110        3.96010        0.11050
O         -4.12060        1.85240       -0.59590
C         -5.45810        1.56200       -0.10600
C         -5.77550        0.07910       -0.22400
N         -4.66980       -0.68380        0.39940
O         -4.51010       -0.55840        1.62430
O         -3.85790       -1.28040       -0.32730
N         -5.94390       -0.37090       -1.62460
O         -5.60480        0.41070       -2.52790
O         -6.40980       -1.49890       -1.84220
N         -7.04630       -0.25310        0.45660
O         -7.93380        0.61410        0.43580
O         -7.18280       -1.36240        0.99180
N         -1.79960        4.58060       -0.86450
O         -2.48580        5.52470       -0.48680
O         -0.62160        4.60380       -1.22370
H         -0.29050       -0.15560        1.55520
H          0.43750       -0.98500        0.20760
H          1.86860        0.54890        2.45530
H          2.69380        0.16930        0.97560
H          3.99450       -3.82760       -0.36910
H          3.88040       -2.60170       -1.59560
H         -1.85550        0.92750        0.11550
H         -1.15220        0.19560       -1.30430
H         -2.36830        1.78120       -2.27940
H         -0.88650        2.64010       -2.26880
H         -6.16930        2.17590       -0.67500
H         -5.50650        1.87840        0.94550
