28
8.723
C         -0.65490       -0.88220        0.06700
C         -0.80580        0.64950        0.37490
C          0.65490        0.88220       -0.06700
C          0.80580       -0.64950       -0.37490
N          1.84400       -1.07060        0.58930
C          2.35950       -0.04920        1.40040
O          3.23640       -0.13130        2.23850
N          1.63130        1.08860        1.02340
N          1.90300        2.37680        1.47260
O          2.74680        2.49990        2.35240
O          1.23480        3.24840        0.91780
N          2.36920       -2.35690        0.52090
O          3.25370       -2.64680        1.31770
O          1.85590       -3.05810       -0.35010
N         -1.84400        1.07060       -0.58930
C         -2.35950        0.04920       -1.40040
O         -3.23640        0.13130       -2.23850
N         -1.63130       -1.08860       -1.02340
N         -1.90300       -2.37680       -1.47270
O         -1.23480       -3.24840       -0.91790
O         -2.74680       -2.49980       -2.35250
N         -2.36920        2.35690       -0.52090
O         -3.25370        2.64680       -1.31770
O         -1.85590        3.05810        0.35020
H         -0.81240       -1.52300        0.94120
H         -1.04760        0.86480        1.42130
H          0.81240        1.52300       -0.94120
H          1.04760       -0.86480       -1.42130
